/*--------------------------------*- C++ -*----------------------------------*\
  =========                 |
  \\      /  F ield         | OpenFOAM: The Open Source CFD Toolbox
   \\    /   O peration     | Website:  https://openfoam.org
    \\  /    A nd           | Version:  8
     \\/     M anipulation  |
\*---------------------------------------------------------------------------*/
FoamFile
{
    version     2.0;
    format      ascii;
    class       vectorField;
    location    "0/lagrangian/kinematicCloud";
    object      angularMomentum;
}
// * * * * * * * * * * * * * * * * * * * * * * * * * * * * * * * * * * * * * //


1722
(
(2.76909e-12 1.34427e-12 -3.48094e-12)
(-9.0506e-12 -1.12349e-11 -6.39444e-13)
(-2.71406e-12 -5.12256e-12 9.04635e-12)
(-4.17612e-12 3.91786e-12 2.51978e-12)
(1.12575e-12 1.39648e-11 -6.54671e-12)
(4.13235e-12 3.1273e-12 -1.91798e-12)
(-2.78845e-12 -9.54798e-12 -7.71875e-12)
(-2.20525e-11 9.45742e-12 -1.53507e-12)
(-2.56763e-11 -2.41757e-11 -1.5785e-11)
(-1.10497e-11 -1.20624e-11 -7.66759e-12)
(1.08025e-11 1.31863e-11 2.467e-11)
(5.21552e-13 5.43606e-12 1.96058e-11)
(1.33019e-12 2.01172e-12 -1.94992e-11)
(2.93339e-12 -2.33354e-12 -2.52682e-12)
(9.04396e-12 2.80985e-14 1.02924e-12)
(6.27684e-12 -3.26298e-12 8.7689e-14)
(4.50479e-12 4.32566e-12 -9.91477e-12)
(3.42881e-12 1.17424e-13 8.75914e-12)
(1.80496e-11 -4.50299e-11 9.22718e-12)
(3.48392e-11 3.7988e-11 -4.7105e-12)
(-4.92315e-11 1.90685e-11 -4.69939e-12)
(-4.61923e-12 -7.71972e-12 -5.40686e-13)
(1.80767e-11 1.11204e-11 -1.00937e-11)
(-2.10517e-12 2.24475e-12 4.49487e-12)
(1.3853e-11 2.11588e-12 1.37694e-11)
(-2.85412e-11 6.86315e-12 -2.66658e-12)
(-4.60881e-11 -1.45622e-11 -8.01324e-12)
(-8.13093e-11 -1.36911e-10 -6.30081e-12)
(-1.43961e-12 3.01316e-11 5.84414e-12)
(1.2409e-10 1.12906e-10 1.03604e-11)
(-1.59192e-10 -6.26664e-12 -5.26098e-12)
(6.67376e-11 -1.23419e-10 1.91584e-11)
(-4.59044e-11 8.84908e-11 1.12348e-11)
(-1.01884e-09 -1.35491e-09 -3.56228e-11)
(-7.47854e-10 7.41777e-10 -9.04386e-11)
(8.29813e-11 1.24942e-10 4.52656e-11)
(2.76446e-11 -4.45615e-12 -4.33099e-11)
(1.24359e-11 -2.57651e-11 -1.06611e-11)
(-2.15424e-11 2.03845e-11 -1.63762e-11)
(-6.27532e-10 -3.80908e-09 1.24146e-10)
(1.72954e-11 -9.14961e-12 3.69695e-11)
(3.41863e-11 -1.32504e-11 5.23686e-12)
(-3.40405e-11 -1.53314e-11 8.04475e-12)
(1.18363e-11 6.28841e-12 9.33529e-12)
(7.20495e-11 5.5436e-12 -1.73915e-11)
(2.15457e-11 3.81895e-12 -5.2642e-12)
(-3.99504e-11 8.93122e-13 1.27956e-11)
(-1.50574e-10 -3.05358e-11 -5.53091e-12)
(1.64244e-10 -1.79273e-11 -2.04963e-11)
(-6.99616e-11 3.9096e-11 5.79309e-11)
(-2.49591e-11 3.77183e-11 4.0928e-11)
(2.6218e-11 -5.68349e-11 -2.0079e-11)
(-1.30761e-11 -5.98732e-11 -1.6282e-11)
(-9.50994e-13 5.20697e-11 4.45829e-12)
(1.58017e-11 -1.12179e-11 -9.13468e-12)
(6.86744e-11 6.73786e-11 2.59407e-11)
(2.1249e-11 1.82558e-11 1.22092e-11)
(-3.31997e-12 -5.1713e-11 -3.48113e-13)
(3.12397e-11 -4.45511e-11 6.78319e-12)
(-4.09991e-11 3.97359e-11 1.45084e-11)
(-3.11607e-12 -8.59318e-13 -6.64538e-11)
(-8.09135e-12 -1.04375e-10 1.5173e-10)
(-1.09148e-10 -8.11988e-11 4.86145e-11)
(-2.71059e-10 1.2521e-11 2.741e-10)
(1.3363e-12 9.95793e-11 -5.36353e-11)
(-6.67912e-11 -2.06363e-10 1.81516e-11)
(1.69245e-10 1.78844e-10 -1.65354e-12)
(-1.36343e-10 6.18039e-11 4.47452e-11)
(3.5731e-10 5.54115e-11 -1.83975e-11)
(1.46686e-11 2.39377e-12 -1.22088e-10)
(-2.37251e-09 -3.67096e-10 -7.23048e-11)
(3.61017e-12 8.40917e-10 9.24825e-11)
(1.75941e-09 -1.02217e-09 2.95072e-11)
(7.17353e-10 1.24558e-09 1.24177e-11)
(-3.75425e-10 -1.38247e-09 4.83193e-11)
(3.72514e-10 -2.45199e-10 -7.13817e-11)
(-2.20855e-10 4.23175e-10 7.34214e-12)
(7.78812e-11 -1.40542e-10 2.97551e-11)
(1.59929e-10 -1.04925e-10 1.41292e-11)
(-6.81719e-12 2.09897e-11 -1.39822e-11)
(-3.95251e-12 6.37112e-12 -1.59814e-13)
(1.06561e-11 -1.04484e-11 6.56524e-12)
(-4.28934e-12 -2.5273e-11 -4.11389e-12)
(3.28267e-12 -1.22468e-12 5.223e-12)
(3.58068e-12 2.16313e-12 7.50732e-12)
(-3.22483e-12 -4.49753e-11 -8.45797e-12)
(6.14264e-11 5.52892e-11 1.83545e-11)
(8.08749e-12 -5.7555e-11 -3.20127e-11)
(2.00492e-12 -1.77472e-11 -7.70223e-12)
(-3.87791e-12 1.15755e-11 6.70987e-12)
(2.52153e-10 1.24577e-10 1.1517e-11)
(1.01346e-12 1.06759e-11 1.42743e-11)
(-9.67137e-12 -9.76553e-13 -2.12945e-11)
(1.13489e-11 -2.52024e-11 7.68987e-12)
(3.21205e-12 1.25819e-11 -9.69978e-12)
(-3.98091e-12 1.42047e-12 1.86215e-11)
(5.79948e-13 -4.04936e-12 -8.92244e-12)
(1.74516e-12 -1.61712e-12 -9.0669e-13)
(-6.10732e-12 4.53922e-12 4.88444e-12)
(2.70044e-11 -6.66142e-11 3.95722e-12)
(4.04833e-11 6.51596e-11 -7.31899e-12)
(1.38421e-12 1.35148e-11 -1.50355e-11)
(1.08424e-11 3.79712e-12 4.71867e-12)
(5.91039e-12 -8.03719e-12 1.39268e-11)
(-1.09712e-11 -4.00235e-12 -2.54697e-11)
(2.01167e-11 -2.81635e-12 -1.61257e-11)
(-6.27951e-12 -1.4586e-11 4.1899e-11)
(-3.88061e-12 9.77187e-12 6.72565e-12)
(-1.61672e-11 -2.43797e-12 1.56813e-11)
(-1.994e-11 2.57428e-11 3.62422e-12)
(-2.69067e-11 7.17805e-11 -2.73629e-12)
(-4.32514e-11 -8.38311e-11 7.89921e-12)
(3.75732e-11 -2.30099e-11 4.58345e-11)
(-1.99645e-11 -6.79677e-12 -4.44145e-12)
(-1.37155e-09 -3.0758e-09 1.77704e-11)
(2.11556e-09 2.35787e-09 -1.73693e-10)
(-2.63747e-11 1.45935e-11 -2.36719e-11)
(7.57892e-12 2.36848e-11 2.00555e-11)
(4.29499e-11 -1.91592e-11 -2.19247e-11)
(5.87474e-12 -1.28776e-11 -2.28992e-12)
(-1.31681e-11 -2.1076e-12 -2.73945e-12)
(6.33005e-12 -1.52819e-11 -1.83033e-11)
(-6.48592e-10 -9.3306e-10 -2.42139e-11)
(-2.33231e-10 8.96752e-10 3.18837e-11)
(3.16649e-10 -3.857e-10 -2.70325e-11)
(-1.39661e-10 -1.7079e-11 2.59809e-11)
(1.71015e-11 -2.19578e-13 -3.38414e-11)
(-1.58193e-10 3.82351e-10 2.27513e-11)
(2.23849e-10 -4.3486e-10 -1.83167e-11)
(2.46858e-12 9.63435e-14 3.73056e-11)
(-1.39148e-11 8.97199e-12 -1.1498e-11)
(-1.51337e-11 7.02745e-12 2.95702e-12)
(-2.01795e-11 5.01411e-11 1.89388e-11)
(5.68766e-11 -1.48016e-11 4.45066e-11)
(-2.54731e-11 -1.98173e-11 -5.63414e-12)
(2.29295e-11 -4.30778e-11 2.17213e-11)
(-4.04151e-12 1.40228e-11 -3.87587e-11)
(-1.29151e-11 -8.6726e-12 9.54771e-12)
(6.84609e-11 4.31703e-12 6.6346e-11)
(1.05296e-11 4.08972e-11 -4.63026e-11)
(4.22108e-11 4.71236e-12 2.64167e-11)
(1.16947e-10 -6.24816e-11 1.55292e-11)
(-1.00034e-10 1.03653e-10 -1.69899e-11)
(9.47153e-11 -7.35706e-11 -6.79561e-11)
(-6.01896e-10 -4.61322e-10 -1.04164e-10)
(-4.02202e-11 7.33506e-11 3.59167e-11)
(3.85225e-09 -1.39434e-09 -8.24368e-11)
(-5.79962e-10 -4.75607e-09 4.5965e-11)
(-3.91983e-10 4.34751e-10 -3.1566e-11)
(-3.08408e-10 -2.33945e-11 3.3317e-11)
(-1.82062e-11 -4.41981e-11 1.19728e-11)
(-5.6073e-11 2.30111e-10 -2.73269e-11)
(-5.67744e-11 2.83628e-11 -1.2766e-11)
(4.82883e-10 1.25525e-10 -4.50943e-11)
(-1.26666e-11 2.67918e-11 -2.52674e-11)
(-5.41747e-12 -1.30062e-11 -3.78644e-12)
(-6.66157e-10 -1.57389e-09 -1.94981e-11)
(-9.47043e-11 -3.57176e-11 1.73415e-11)
(-8.57575e-12 1.47421e-10 2.74755e-11)
(-4.62267e-11 -2.34095e-12 -1.13836e-11)
(5.18711e-11 -1.15845e-10 -3.68521e-12)
(-5.63532e-11 -3.94112e-11 -2.17184e-11)
(-3.79296e-09 -1.71234e-09 6.96299e-11)
(1.18187e-11 1.01128e-11 1.32397e-11)
(-1.33321e-11 5.70756e-11 5.75949e-12)
(2.0853e-11 1.01727e-11 -1.36601e-11)
(-3.69434e-11 -4.98817e-11 8.82152e-12)
(4.38316e-11 1.24539e-12 -2.68362e-11)
(-1.43323e-12 3.96218e-12 -3.7362e-12)
(2.66655e-12 -7.39178e-12 -4.32668e-13)
(1.54087e-11 2.40818e-11 3.96227e-12)
(-4.0174e-11 -4.63175e-11 6.2031e-12)
(2.46446e-12 5.59875e-11 -5.94649e-12)
(2.24161e-12 1.73351e-12 -1.71842e-11)
(-5.39772e-12 5.50108e-12 -9.48081e-13)
(-1.93456e-11 3.13115e-12 1.34846e-12)
(1.56656e-11 1.44142e-11 1.19565e-12)
(-6.09417e-12 3.02797e-12 -1.35626e-11)
(1.51036e-11 1.8994e-11 -3.2952e-11)
(-3.66039e-12 1.45262e-12 9.01838e-12)
(4.33681e-12 -7.37109e-12 1.1959e-11)
(-5.12282e-12 6.83073e-13 -1.80285e-11)
(2.66891e-11 -2.37473e-11 2.2337e-13)
(-3.57055e-12 1.88293e-12 3.06026e-11)
(-2.40654e-11 1.45503e-11 -1.57413e-11)
(-8.9505e-12 -6.29159e-12 -1.55353e-12)
(-1.74782e-11 -1.21778e-11 -2.63629e-11)
(1.73476e-11 3.81483e-12 8.06499e-12)
(2.10342e-11 1.72237e-11 7.15857e-12)
(1.3888e-11 -2.33406e-11 -1.44629e-11)
(-9.8235e-12 -2.81368e-11 -1.13613e-12)
(8.3204e-12 -1.14587e-11 -3.92598e-12)
(-4.76408e-11 -1.18337e-11 2.2134e-11)
(1.81757e-09 2.716e-09 2.88931e-11)
(-3.58933e-10 1.58312e-10 9.71851e-12)
(-1.69312e-09 -1.4786e-09 -2.28562e-11)
(3.71474e-11 -8.53527e-12 -6.82574e-12)
(-2.3492e-11 3.14594e-12 2.32127e-11)
(9.17608e-11 3.06956e-11 7.7214e-12)
(-3.47014e-10 3.01893e-10 1.14672e-11)
(-4.38194e-11 7.44149e-11 -2.78348e-12)
(-1.68328e-10 5.01819e-10 4.1325e-11)
(-1.08381e-10 2.51301e-11 -3.65112e-11)
(-4.93711e-11 1.04382e-11 -3.65618e-11)
(5.55853e-11 -1.56005e-11 1.80758e-11)
(2.23822e-11 -7.5335e-10 2.93329e-11)
(-2.93964e-09 2.71642e-10 -1.0435e-10)
(-1.65271e-10 6.22424e-10 -4.885e-11)
(-1.86461e-10 -1.11659e-10 -1.55573e-10)
(-2.38063e-10 -3.59729e-10 9.49031e-11)
(-2.9667e-11 1.42878e-11 -1.27128e-10)
(-4.05667e-11 -7.81169e-12 -1.06645e-10)
(9.24204e-12 4.31681e-11 7.58553e-11)
(1.45085e-11 -2.22989e-11 8.02906e-11)
(1.72826e-10 1.2549e-10 -1.4604e-11)
(-3.7288e-11 -2.16166e-10 4.19909e-11)
(4.77169e-10 -4.62008e-10 4.19877e-11)
(-2.97243e-10 2.2186e-11 -2.35587e-10)
(4.24627e-11 2.90295e-11 -1.20041e-10)
(-7.79156e-10 1.07372e-10 7.64035e-11)
(9.72831e-10 -1.09087e-09 3.63869e-10)
(1.25922e-10 -1.16723e-10 -1.22711e-12)
(3.3296e-10 -4.34656e-11 -5.59966e-12)
(-2.88142e-11 1.16962e-10 4.19687e-13)
(3.08477e-11 -1.12996e-11 6.63191e-12)
(7.24977e-13 -3.84541e-11 -1.78533e-11)
(1.65856e-12 1.93602e-12 7.53101e-13)
(2.17837e-11 -2.1781e-10 2.14438e-11)
(1.55669e-10 5.39127e-11 -3.14406e-12)
(3.18707e-10 2.49264e-09 -9.6998e-11)
(-1.72418e-10 9.26004e-11 -6.33557e-12)
(6.06512e-11 8.80567e-11 -1.39004e-11)
(-1.03821e-10 -3.54926e-11 -1.35062e-11)
(-3.45733e-11 -1.04323e-11 -8.13163e-13)
(-2.6159e-11 -2.35763e-11 2.59049e-11)
(1.52392e-12 -6.95717e-12 4.52003e-12)
(-1.42006e-12 -6.69614e-11 -8.63957e-12)
(-3.29275e-12 1.63052e-11 -1.85547e-12)
(-9.58789e-12 -5.1236e-12 6.79692e-12)
(7.2228e-13 -2.6923e-12 -1.05501e-11)
(-2.00546e-11 -2.6668e-12 2.64038e-12)
(-1.33316e-11 -1.29389e-11 1.71353e-11)
(-4.37638e-12 -2.35135e-12 6.83096e-12)
(1.79342e-11 1.23613e-12 -4.75192e-12)
(-1.64615e-11 4.20359e-13 -3.55889e-12)
(1.32714e-11 -9.38986e-12 5.30114e-12)
(-1.30183e-11 -1.81766e-12 6.8549e-13)
(6.41348e-12 2.57963e-12 4.26797e-12)
(-4.88555e-12 5.01677e-13 -4.39644e-12)
(4.13958e-11 -7.0988e-11 2.58467e-11)
(3.47723e-11 4.11496e-11 3.3851e-12)
(-3.63941e-11 -4.30349e-15 -3.44396e-12)
(-9.8215e-12 1.50513e-12 -4.27167e-12)
(1.02521e-11 -1.82403e-11 1.09143e-11)
(3.2788e-12 -1.05573e-11 1.53836e-13)
(2.55607e-11 -6.73252e-11 -1.54983e-11)
(1.43886e-11 -2.68553e-11 -1.84897e-12)
(6.01149e-12 -1.92662e-11 -2.12212e-11)
(-1.83929e-11 1.81922e-11 6.4806e-12)
(-7.7673e-11 -1.61753e-09 1.50481e-11)
(-1.77358e-10 -2.34944e-10 -1.86283e-10)
(-5.88986e-10 -4.99659e-09 3.02028e-10)
(-4.52687e-10 5.22873e-10 -1.58246e-10)
(-1.76478e-10 -7.92517e-10 1.20789e-10)
(-5.45913e-09 -7.81975e-09 -1.68009e-10)
(1.29334e-10 4.01837e-10 -9.99856e-11)
(1.27244e-11 4.50888e-11 4.31706e-11)
(5.14771e-11 8.52853e-11 -3.68689e-11)
(3.44755e-11 5.35324e-11 -5.33061e-11)
(-4.51439e-11 -3.14329e-12 1.59216e-11)
(-6.87642e-10 -1.26269e-09 4.92133e-11)
(2.35563e-11 -2.76755e-11 -1.39041e-11)
(-2.83118e-11 -4.57853e-11 -2.11114e-11)
(-5.78646e-11 2.63114e-11 -2.77547e-12)
(-2.06619e-12 -7.94778e-11 -1.40969e-11)
(-6.39301e-10 8.66568e-10 -1.17193e-11)
(-4.47342e-12 -1.41966e-11 1.72005e-11)
(7.653e-10 -8.8714e-10 -1.62607e-12)
(3.97178e-12 -6.13282e-11 2.81257e-11)
(-6.95521e-10 8.90217e-10 2.7128e-12)
(2.91e-11 -2.56175e-11 3.54704e-11)
(-1.34933e-10 1.31588e-10 -1.06516e-10)
(5.23163e-09 8.9791e-10 4.99862e-11)
(4.12019e-09 -4.68984e-09 2.88979e-11)
(-1.96585e-09 -5.46378e-09 9.63085e-11)
(2.2767e-09 5.08076e-09 -4.91917e-11)
(7.11824e-12 9.65369e-11 -1.69065e-11)
(-3.0854e-11 -3.38763e-11 8.8424e-11)
(3.37874e-11 -4.23775e-11 -2.79212e-11)
(-8.00951e-12 1.9498e-11 -3.5886e-11)
(-3.08418e-11 -4.0862e-11 -1.11741e-10)
(-3.91199e-12 4.55388e-11 4.87091e-11)
(9.97637e-11 4.23922e-11 9.93381e-11)
(1.00346e-12 1.85784e-10 -1.50668e-11)
(9.08824e-12 3.61478e-11 -2.07723e-11)
(1.88604e-10 -4.68506e-10 2.26006e-10)
(-4.21094e-10 -8.9729e-12 -7.45545e-11)
(-3.63417e-11 2.60504e-10 -1.10739e-10)
(3.60471e-10 2.54239e-10 3.85186e-10)
(3.06786e-10 7.73134e-11 -5.3912e-10)
(-3.86614e-10 9.58252e-11 2.22322e-10)
(4.39557e-11 4.21989e-11 -1.15666e-10)
(6.80941e-11 -5.2448e-11 -8.35218e-12)
(-6.45026e-11 -2.79412e-11 -5.39125e-11)
(-3.70018e-12 1.02762e-12 8.42711e-12)
(1.2479e-11 2.41217e-12 -7.06783e-12)
(-1.03554e-11 3.59563e-12 8.18393e-13)
(6.45149e-10 3.42529e-10 1.45918e-11)
(6.86431e-11 -5.18776e-11 7.49337e-12)
(2.76465e-11 7.30925e-12 8.07111e-12)
(1.22407e-10 1.52455e-09 -2.31541e-11)
(-2.49695e-11 4.50928e-12 1.20549e-11)
(2.24416e-11 -1.51603e-13 -5.70752e-12)
(-1.23219e-11 -7.12368e-12 7.07281e-12)
(1.48485e-11 -1.96826e-12 -7.92869e-12)
(-1.12904e-11 1.60087e-11 -8.00489e-12)
(2.60098e-11 3.17401e-11 1.56138e-11)
(1.71519e-11 -9.94797e-12 7.50951e-12)
(-2.76667e-10 1.72723e-11 -4.45404e-11)
(-1.997e-11 1.46335e-12 2.69457e-12)
(-1.95263e-12 2.00677e-11 -2.47489e-12)
(1.47561e-11 3.79697e-12 -1.5593e-12)
(-8.78193e-12 4.86324e-13 -8.30828e-13)
(1.29279e-11 -1.08366e-11 -2.14911e-12)
(5.86281e-12 3.79874e-12 -4.89587e-13)
(-1.12285e-11 -9.11313e-12 2.21651e-13)
(5.93194e-12 -6.77275e-13 3.70156e-13)
(6.42e-12 -1.0623e-11 5.9876e-12)
(1.04378e-11 -1.00684e-11 4.27569e-12)
(-6.83629e-12 -2.44731e-12 -3.89414e-12)
(1.06571e-11 -3.4999e-12 2.83568e-12)
(-1.68011e-11 9.72495e-12 4.33051e-12)
(-1.53681e-11 5.64211e-11 4.26711e-12)
(-3.86913e-11 2.23533e-11 -1.45719e-11)
(1.91709e-11 -2.44758e-11 -1.16573e-11)
(-5.88435e-11 -1.25443e-10 -1.52786e-10)
(9.58113e-11 1.40573e-10 1.25288e-10)
(4.79505e-09 6.92035e-09 1.2087e-10)
(-4.65108e-11 7.93086e-12 -4.15607e-11)
(9.53331e-11 5.58106e-11 -2.20785e-11)
(-1.08215e-10 -2.18271e-11 4.34202e-11)
(6.88771e-11 4.53499e-12 -4.95411e-12)
(-2.21111e-11 -6.26765e-11 1.90504e-11)
(7.47481e-12 2.64584e-11 1.67101e-11)
(-1.75451e-12 5.7424e-11 1.45187e-12)
(2.27493e-11 -1.3559e-11 -3.67869e-12)
(2.46506e-11 1.31895e-11 -1.33478e-11)
(-1.63979e-11 -2.79553e-11 1.26198e-12)
(-1.15355e-11 -8.11311e-12 1.46485e-11)
(3.63522e-11 -1.10353e-11 -2.47063e-12)
(5.01538e-11 2.10633e-11 -1.80514e-11)
(-7.84409e-11 -1.01909e-11 1.57433e-12)
(7.50596e-12 -5.6945e-11 -9.48316e-12)
(7.33409e-11 -3.98833e-12 -3.4256e-12)
(-2.65335e-10 4.18203e-10 8.4029e-11)
(8.94986e-11 -1.03882e-10 8.92198e-11)
(-8.67086e-11 -1.7148e-10 -1.25005e-10)
(-3.39898e-09 1.36359e-09 4.78038e-11)
(1.73139e-10 -4.80274e-11 -4.67485e-11)
(-1.26575e-10 -2.52122e-11 1.10509e-10)
(1.74205e-10 -3.0347e-11 -6.7354e-11)
(4.40572e-11 -1.33789e-11 -1.35987e-11)
(-4.68943e-11 6.04633e-11 8.33836e-11)
(-3.69262e-11 3.52157e-11 -2.90373e-11)
(-3.8229e-11 1.80955e-11 -1.89601e-11)
(3.92125e-11 -4.30268e-11 2.79811e-11)
(1.0366e-10 -1.04861e-09 -4.07994e-10)
(1.86087e-11 1.14698e-09 -5.49564e-10)
(-2.94189e-11 -7.80084e-12 -1.10797e-10)
(-3.49777e-11 3.45887e-11 4.43829e-11)
(2.11945e-11 -2.10448e-11 1.13055e-12)
(4.18882e-12 4.53161e-11 5.05121e-11)
(6.90032e-10 -9.82939e-10 3.69785e-10)
(-6.75972e-11 -7.58929e-11 -6.07947e-11)
(-6.09621e-11 -3.82021e-10 -2.81722e-11)
(-1.66152e-10 4.89622e-10 4.11303e-10)
(-1.77347e-10 4.6865e-11 5.15565e-11)
(-7.34601e-10 -7.49745e-10 1.01014e-10)
(6.21088e-11 -1.91215e-10 2.02386e-10)
(4.45658e-12 -8.7486e-13 -3.63892e-12)
(-6.39334e-12 -6.38175e-12 4.80848e-12)
(2.36084e-09 3.24059e-10 5.86208e-11)
(4.19088e-09 2.37513e-09 -1.06915e-10)
(1.83214e-09 2.98642e-10 -3.8725e-11)
(-1.84786e-09 -2.50092e-09 8.66835e-11)
(5.93569e-11 2.61676e-11 1.15729e-11)
(-8.23942e-12 1.34371e-11 -1.36294e-11)
(-8.65574e-12 4.69705e-11 9.96724e-12)
(-2.57089e-11 -6.28926e-12 -5.55979e-12)
(2.51299e-12 -3.34549e-12 1.38986e-11)
(-1.08624e-09 2.06213e-10 1.61191e-11)
(-8.97003e-12 -4.18917e-12 -5.07448e-12)
(1.03038e-11 3.0008e-12 4.68841e-12)
(2.66287e-12 -2.18774e-12 2.96855e-12)
(7.21545e-12 -5.72814e-12 -3.01176e-13)
(-9.59923e-12 3.781e-12 3.02477e-13)
(-4.61788e-12 3.25734e-12 -1.29536e-12)
(-8.37034e-12 -4.43455e-12 -4.64829e-12)
(-6.32974e-12 1.37356e-11 3.55219e-12)
(1.21996e-11 4.69704e-13 -3.77052e-12)
(-2.58903e-12 -9.39464e-12 -5.57477e-12)
(-2.14015e-12 2.57528e-12 6.06442e-12)
(4.37263e-12 1.97138e-12 6.65297e-12)
(-6.78387e-12 -6.80434e-12 -2.34424e-13)
(2.6208e-13 2.50678e-12 1.13342e-11)
(3.74338e-12 -6.07919e-12 8.7058e-12)
(2.33902e-11 2.034e-11 1.50805e-11)
(7.1712e-11 3.02048e-11 1.12946e-11)
(1.66579e-11 4.86935e-11 3.76115e-11)
(-3.53825e-11 -1.38056e-11 3.93174e-11)
(-8.46766e-12 -3.18861e-11 -4.27563e-11)
(7.89981e-11 1.54807e-10 1.38423e-10)
(3.6877e-11 2.03706e-11 5.79581e-12)
(-2.69509e-11 8.19366e-13 -1.1263e-11)
(5.62248e-12 -1.61685e-11 -5.53156e-12)
(-3.76598e-12 -4.46048e-11 1.18675e-12)
(-3.51469e-11 9.96165e-12 -2.47405e-11)
(-4.7884e-11 -1.06478e-11 2.36147e-11)
(1.95145e-11 1.4223e-11 -5.72677e-12)
(-2.24955e-11 2.3471e-13 1.12018e-11)
(2.31428e-11 -1.26211e-11 2.08725e-11)
(-1.02221e-11 -2.65034e-12 5.60665e-12)
(-6.73738e-11 -4.16672e-11 -1.37009e-10)
(9.28043e-11 1.32941e-11 -1.57131e-11)
(-9.8415e-11 8.76626e-11 1.77153e-10)
(-7.58197e-12 -3.05667e-11 5.2039e-11)
(-1.31754e-10 -9.7268e-11 1.52818e-10)
(-2.31623e-11 3.79311e-11 -8.28543e-11)
(-6.13196e-11 -3.62423e-11 1.59376e-11)
(1.70893e-10 -8.06703e-11 2.26981e-11)
(1.29011e-11 5.16274e-11 -6.20636e-11)
(-4.78959e-11 -5.99857e-11 -4.58955e-11)
(1.75048e-10 3.82938e-12 5.32712e-11)
(-3.0003e-11 1.08064e-10 1.54626e-10)
(1.16141e-10 8.83286e-11 -2.48347e-10)
(3.04144e-11 -1.26913e-10 -1.65178e-10)
(-1.97324e-10 3.38092e-11 1.27421e-10)
(-3.25703e-10 4.12705e-10 -1.00279e-10)
(-5.30714e-09 -1.45851e-09 -5.30545e-11)
(5.17883e-09 1.6029e-09 3.9418e-11)
(-3.46309e-11 -2.67548e-10 9.35417e-11)
(-8.76931e-11 2.54217e-11 5.6588e-11)
(-2.38796e-12 1.03063e-10 -2.55889e-11)
(2.85807e-11 1.88051e-11 4.21685e-11)
(1.29884e-10 2.22562e-11 -1.4006e-10)
(-3.45245e-11 -4.55584e-11 -3.08172e-11)
(-9.03612e-11 -7.17593e-11 -3.25327e-11)
(1.34933e-10 2.32416e-11 1.51092e-11)
(4.02469e-11 1.30141e-10 -1.59288e-11)
(-5.28313e-12 -1.66106e-10 -1.2529e-10)
(2.19038e-11 1.72479e-10 4.25139e-11)
(9.56084e-10 7.2176e-10 -2.11501e-10)
(-6.76522e-10 -2.3182e-10 3.63679e-10)
(-2.08382e-10 6.45728e-10 -1.44703e-10)
(6.28531e-10 1.49935e-10 -1.84958e-10)
(5.45136e-10 5.49226e-11 2.38394e-11)
(-1.06608e-11 -3.98975e-13 -6.96866e-12)
(1.05204e-11 5.28438e-12 -1.01977e-11)
(2.90051e-12 -5.79093e-12 7.97519e-12)
(2.04596e-11 1.61882e-11 -1.51186e-11)
(5.74409e-10 4.86449e-09 -8.43791e-11)
(4.67587e-11 -1.03864e-10 4.85138e-11)
(3.48064e-11 3.58265e-11 -3.20207e-11)
(1.24823e-11 4.24137e-11 -1.93382e-11)
(2.79316e-11 -1.11789e-11 -5.55169e-12)
(-1.24349e-11 -1.46696e-11 -1.23384e-11)
(-1.16534e-12 1.59166e-11 -3.67208e-12)
(-1.8443e-11 2.22467e-11 2.69401e-11)
(1.26666e-09 2.09393e-09 -8.60311e-12)
(6.94084e-12 -1.31752e-11 -1.0649e-11)
(4.91331e-10 9.14779e-10 -3.7877e-11)
(-1.20245e-12 1.54911e-11 -2.93034e-11)
(-8.88754e-12 -1.35878e-11 -2.258e-11)
(-1.61674e-11 -2.38237e-11 1.27409e-11)
(1.31962e-11 5.85295e-12 -8.41068e-12)
(-1.15725e-11 2.35437e-12 2.47617e-12)
(1.44255e-11 -5.7054e-12 5.29809e-13)
(-1.00037e-11 -4.81818e-12 4.20428e-12)
(1.51529e-11 2.32962e-11 3.75115e-12)
(8.83653e-12 1.42596e-12 -2.96738e-12)
(-2.19492e-12 9.28514e-12 2.57783e-12)
(-2.33806e-12 -1.67091e-13 -8.71304e-12)
(3.95636e-12 9.08721e-13 -1.22108e-11)
(1.29139e-12 7.72584e-12 3.82774e-12)
(-6.86177e-12 4.94911e-12 2.48032e-12)
(-1.50047e-11 -2.17212e-11 -2.5203e-11)
(2.98711e-11 -4.20103e-11 1.91351e-11)
(-2.33817e-11 -1.12615e-10 -1.86917e-11)
(1.83105e-11 -3.57454e-11 -6.66945e-11)
(-3.22756e-11 3.68785e-11 2.37575e-11)
(3.30124e-12 5.57228e-11 3.54907e-11)
(-4.47988e-11 -1.1597e-11 -1.29589e-10)
(8.64568e-11 -6.93441e-11 -4.04673e-11)
(-4.6423e-12 7.25448e-12 1.85201e-10)
(-3.04847e-11 1.60547e-10 -7.79704e-11)
(7.09988e-10 9.27969e-11 5.11131e-11)
(-1.16245e-11 -6.80402e-13 -1.18382e-10)
(8.50538e-11 -8.27623e-11 3.61374e-11)
(4.69401e-11 9.2093e-12 -5.97586e-11)
(2.1161e-11 -4.95389e-11 -3.93416e-10)
(8.33997e-11 7.73965e-12 6.97804e-12)
(7.25469e-11 9.13222e-11 -2.138e-10)
(-5.29621e-11 -6.75582e-11 -2.98522e-11)
(4.65128e-11 -2.43546e-11 1.03931e-11)
(1.82213e-11 9.0144e-11 -5.48927e-12)
(3.95686e-11 1.9912e-11 -5.50663e-11)
(-6.47974e-11 -7.15539e-11 -9.6655e-11)
(1.12926e-11 8.26547e-12 -9.00548e-13)
(-1.71285e-10 -2.24542e-11 1.51579e-10)
(-3.50405e-12 -1.96479e-11 -2.82585e-10)
(2.35174e-11 -5.21277e-11 1.66379e-10)
(4.00703e-09 1.24567e-09 5.36662e-11)
(-1.04833e-09 -5.05015e-09 -2.00186e-11)
(-4.37039e-09 2.48757e-09 -1.18362e-11)
(-2.79902e-10 2.20096e-11 -1.36836e-11)
(1.19426e-10 -4.74491e-11 -2.03949e-10)
(-4.81871e-11 -1.27993e-11 1.08638e-10)
(6.22375e-11 -1.89277e-11 -2.4318e-10)
(1.91101e-10 5.53103e-10 7.44596e-11)
(-1.25072e-10 -4.91184e-09 -1.67164e-10)
(5.10348e-10 -4.10915e-10 -2.11025e-10)
(8.07833e-11 6.99008e-11 3.04049e-12)
(-8.34676e-10 3.75939e-10 1.11758e-10)
(-1.53521e-10 -2.48283e-11 -3.60261e-11)
(-4.01217e-10 -3.98363e-10 4.26334e-11)
(1.19838e-11 -2.93493e-11 2.70142e-11)
(-6.43785e-12 3.00206e-11 -7.08941e-11)
(-1.46596e-09 -8.15251e-10 7.44719e-11)
(-1.65408e-10 -3.32506e-10 -2.90564e-10)
(-5.73547e-10 2.17446e-10 3.51797e-11)
(1.67533e-11 -3.86322e-11 8.49128e-11)
(-1.60502e-11 -1.20461e-11 1.471e-12)
(2.05528e-10 2.55054e-11 6.00276e-11)
(-1.49616e-11 1.82815e-11 -1.22935e-10)
(-1.41743e-11 5.47727e-11 4.31157e-11)
(-4.07043e-11 -2.26325e-11 6.36882e-11)
(-7.25759e-10 3.97965e-10 -2.21983e-10)
(-2.80529e-11 -1.27237e-11 4.39059e-11)
(2.95146e-11 4.41788e-11 5.18977e-12)
(2.99901e-11 -4.869e-11 -3.29067e-11)
(2.08601e-11 1.78558e-11 -8.51702e-12)
(9.36068e-12 -1.57068e-11 -7.53704e-12)
(7.47836e-10 7.79617e-10 2.84558e-11)
(-6.91038e-10 -8.44381e-10 1.67173e-11)
(4.02013e-11 -1.04955e-10 2.64119e-11)
(-2.06706e-11 3.83529e-11 -8.00637e-12)
(2.48891e-11 1.21839e-11 2.13458e-11)
(-5.35291e-11 8.11514e-11 -1.52745e-11)
(1.25756e-11 2.1738e-11 -1.10555e-11)
(5.58509e-12 -8.17414e-12 -6.00615e-12)
(1.87002e-11 6.0423e-12 -7.99552e-12)
(1.89993e-12 -1.91019e-11 -3.21987e-12)
(-1.1229e-11 -2.41157e-11 1.54272e-11)
(-1.84728e-11 6.80992e-12 3.98722e-12)
(-4.08456e-12 4.55534e-11 6.92843e-12)
(-2.84373e-12 -2.25985e-11 1.12081e-12)
(-4.07836e-11 -2.36082e-11 -4.17456e-12)
(1.96744e-11 1.31516e-11 6.32857e-13)
(-4.13831e-12 -1.8873e-11 2.14195e-11)
(8.05161e-12 -1.73422e-11 4.28018e-12)
(-7.41641e-13 -9.20175e-12 1.90532e-11)
(-1.44514e-11 2.13388e-11 -1.01476e-12)
(6.21647e-12 1.4922e-11 1.94218e-11)
(1.21215e-10 -3.63172e-11 5.82985e-12)
(-9.56736e-11 -1.21685e-10 2.65492e-12)
(4.8847e-11 -1.32583e-11 2.78766e-11)
(5.42488e-13 -1.12979e-10 2.75674e-10)
(2.50754e-11 1.56468e-10 -2.77708e-10)
(7.12809e-11 -1.61633e-10 2.04813e-10)
(-8.34527e-10 -1.29651e-11 -5.05101e-11)
(-2.01591e-11 -8.2044e-11 1.29122e-10)
(-3.90009e-11 -8.54855e-11 -2.30272e-10)
(5.81978e-11 4.85175e-11 4.68708e-10)
(1.83023e-09 2.93181e-09 -2.21133e-10)
(-4.69944e-10 -2.68976e-09 4.38766e-10)
(4.04484e-11 1.08848e-10 -1.03618e-12)
(-2.49112e-11 -1.24581e-10 -4.4674e-11)
(-8.18044e-12 1.79876e-11 8.69158e-11)
(9.7421e-11 5.9543e-10 -3.01936e-12)
(-2.00974e-11 1.32345e-10 -2.66015e-11)
(9.19891e-11 1.09056e-10 2.67834e-11)
(1.48296e-10 -1.29759e-10 -2.21217e-10)
(-1.0151e-10 6.06914e-10 9.44115e-11)
(-4.66156e-12 1.56621e-10 1.8207e-10)
(5.55243e-11 -1.93841e-10 -1.23753e-10)
(-2.25679e-10 -1.77953e-10 8.19873e-11)
(-1.28508e-10 -9.12973e-11 8.43429e-11)
(-4.29836e-11 6.17958e-11 -2.46672e-10)
(-1.08236e-10 3.416e-11 1.60706e-10)
(1.20429e-10 -1.41134e-11 -2.08812e-10)
(-1.37737e-10 3.99736e-11 1.90508e-10)
(-9.66673e-12 -1.91992e-12 -6.47856e-11)
(-1.26851e-10 1.17908e-11 1.364e-10)
(-2.2174e-10 -1.92249e-10 1.28634e-10)
(3.94324e-10 8.91638e-11 -1.53767e-10)
(3.5166e-10 -5.54947e-10 -9.82761e-11)
(-6.1308e-11 -2.64301e-11 -2.35548e-11)
(9.77115e-11 2.05409e-10 1.97193e-11)
(-1.71074e-10 3.76053e-11 1.79749e-11)
(3.00363e-11 -1.19883e-10 -5.36447e-11)
(-5.62303e-11 -1.47083e-10 3.81036e-11)
(3.29419e-11 1.50422e-10 4.83776e-11)
(1.61485e-10 -3.04892e-11 2.43651e-11)
(5.34228e-10 -8.84322e-12 -2.16668e-11)
(-6.58858e-12 -7.23627e-11 5.18459e-12)
(8.1171e-11 6.49705e-10 -8.46681e-12)
(3.90312e-10 6.51232e-11 7.61912e-12)
(-2.18983e-12 3.19855e-11 -4.66391e-11)
(-3.36085e-11 -2.31208e-11 2.78207e-11)
(4.68371e-11 -3.70039e-11 -4.20853e-11)
(1.77537e-11 9.16781e-12 9.28908e-12)
(1.59809e-11 5.16697e-13 -3.5881e-11)
(-4.70409e-11 1.83152e-11 2.49347e-12)
(-9.32414e-12 -3.89045e-11 8.80861e-11)
(-4.9301e-10 2.79931e-10 7.84106e-11)
(1.13945e-09 4.63876e-09 -1.0951e-10)
(-6.88243e-10 4.21491e-11 3.39993e-12)
(9.54744e-12 -6.54326e-12 1.86291e-11)
(3.84678e-11 -1.96109e-11 2.50059e-11)
(2.39847e-11 -1.04577e-10 2.29983e-11)
(-7.11757e-12 2.14671e-11 -1.52134e-11)
(1.38158e-11 -1.26133e-11 2.19357e-11)
(-3.11669e-11 7.12022e-11 -1.8134e-11)
(1.09506e-11 2.08298e-11 1.61954e-11)
(-3.19737e-11 4.36762e-12 -2.09572e-11)
(-1.90142e-12 -3.58428e-11 -1.60864e-11)
(-5.13506e-12 1.32089e-11 9.17954e-12)
(2.16868e-11 -2.03076e-11 1.49106e-11)
(1.71107e-12 -2.43512e-11 -1.67362e-11)
(2.25113e-11 7.99315e-11 -1.14091e-11)
(-7.3813e-12 6.75366e-11 1.96089e-11)
(4.73442e-11 -9.45418e-11 -1.15649e-11)
(-5.68251e-12 1.17697e-11 -3.93594e-11)
(1.25648e-11 4.10558e-12 -3.3926e-11)
(-1.1839e-10 -9.66915e-11 4.40036e-11)
(1.3297e-10 1.0658e-10 -5.8728e-11)
(-3.71621e-11 5.39929e-11 -3.43596e-11)
(-1.65951e-11 -7.57124e-12 7.63004e-11)
(-2.12599e-11 -8.68651e-11 8.67098e-11)
(2.59651e-11 7.33593e-11 -2.2271e-10)
(1.09969e-09 -4.6569e-09 3.39445e-10)
(9.62879e-10 1.45129e-09 8.83425e-11)
(-1.01111e-11 2.33574e-10 2.76663e-10)
(-2.51311e-11 -1.70543e-10 -4.00396e-10)
(1.2026e-09 2.29361e-09 9.84883e-11)
(-3.23814e-11 1.0359e-10 2.2394e-10)
(-1.4325e-11 -6.28396e-11 -7.82801e-11)
(4.13921e-12 1.19964e-10 2.0516e-10)
(-5.27652e-11 -1.09546e-10 -1.86622e-10)
(-8.59502e-11 2.71482e-11 7.85084e-11)
(-1.57474e-12 9.26247e-12 9.65621e-11)
(-3.03172e-11 9.42024e-12 -7.54678e-11)
(3.00122e-11 8.41495e-11 -1.79222e-10)
(2.09706e-11 8.49906e-12 1.18416e-10)
(5.72606e-11 -2.46286e-12 1.33252e-10)
(5.73664e-11 -2.20204e-10 -1.04643e-10)
(-1.46703e-10 -2.94734e-10 1.03852e-10)
(4.72084e-10 3.55684e-10 4.35351e-11)
(1.42767e-10 -2.17163e-10 -2.74535e-10)
(4.98095e-10 4.89997e-11 -2.84758e-10)
(-2.06764e-10 1.98625e-10 1.47912e-11)
(8.5159e-11 -1.24549e-10 1.71981e-10)
(-9.45879e-11 1.65565e-10 1.62178e-10)
(1.11672e-10 3.60962e-11 3.82326e-11)
(-9.75843e-11 4.42744e-11 3.48864e-11)
(2.95045e-10 1.16703e-10 2.41428e-11)
(6.85165e-11 -5.04673e-11 -7.59527e-11)
(-1.60151e-10 -2.18926e-10 8.59268e-11)
(-1.38482e-10 3.78045e-11 -1.1635e-10)
(1.70089e-09 -1.56382e-09 -5.4616e-12)
(-1.05142e-09 2.6968e-09 7.08848e-11)
(2.77543e-10 -2.66312e-09 1.23047e-11)
(3.20728e-10 5.33912e-12 2.42559e-11)
(4.26865e-11 2.17439e-10 3.74993e-11)
(-3.44424e-10 5.0761e-11 -1.54904e-11)
(1.75027e-10 1.68537e-10 3.65615e-11)
(-2.81698e-10 -4.45654e-10 2.01011e-11)
(-5.10179e-10 -2.85716e-10 1.63581e-11)
(8.76177e-10 5.0786e-11 -4.80018e-11)
(4.05902e-09 -7.05835e-11 -1.10887e-10)
(1.29711e-11 1.38395e-11 7.56803e-11)
(-1.92097e-11 5.78804e-11 -4.99919e-12)
(-6.68344e-11 -3.65618e-11 8.00523e-11)
(-3.87725e-11 4.72926e-11 4.69904e-11)
(1.55692e-12 -5.13927e-12 -1.15578e-10)
(-1.17713e-11 6.38323e-11 -3.56998e-11)
(-1.03196e-12 -1.61846e-10 4.32248e-11)
(1.70523e-10 2.66943e-10 -4.8705e-11)
(1.92628e-09 -2.04777e-09 -5.1119e-11)
(3.28355e-11 -2.42004e-11 -1.09268e-11)
(-1.07229e-09 2.64734e-09 -7.35915e-11)
(-1.16238e-09 3.18186e-09 -1.36728e-10)
(-1.82617e-11 -7.2475e-12 -1.63736e-11)
(-8.65699e-12 6.20477e-11 -9.75305e-13)
(-5.25665e-12 -1.78535e-13 1.4311e-11)
(8.08095e-12 -2.13312e-11 1.45673e-11)
(4.69531e-11 -3.29405e-11 2.1343e-11)
(2.52833e-11 -1.59203e-12 2.00308e-11)
(-1.79602e-11 6.17409e-11 -5.1984e-12)
(6.31354e-13 7.16813e-12 3.05115e-12)
(-1.64591e-12 1.07169e-11 -9.45842e-12)
(-2.78046e-12 -3.82151e-12 1.63887e-11)
(-2.59074e-11 8.48727e-12 -3.94596e-12)
(4.27913e-11 9.70513e-13 2.02957e-11)
(1.14208e-11 -6.57206e-11 -1.95803e-11)
(-1.6412e-11 3.85913e-11 -3.58799e-11)
(-2.15638e-11 5.98879e-11 2.124e-11)
(4.15894e-11 -3.82634e-11 -3.14954e-11)
(-9.98671e-12 -3.57616e-11 2.72371e-11)
(9.36147e-11 1.35627e-10 -3.63207e-11)
(4.96805e-12 -9.47772e-12 -3.38234e-11)
(-3.32452e-11 -3.58216e-11 -2.72791e-10)
(-9.619e-11 -1.57645e-10 -1.9794e-10)
(9.46981e-10 1.38522e-09 2.14261e-10)
(-9.61769e-10 -1.38866e-09 -1.72525e-10)
(1.23593e-10 3.07556e-11 1.1267e-10)
(-1.50436e-10 -5.62893e-11 -1.83355e-10)
(-1.12529e-10 1.15169e-10 -1.8518e-10)
(7.61823e-11 -4.05562e-11 -2.24337e-11)
(2.02972e-11 4.45864e-11 2.09734e-11)
(2.04059e-11 -3.35568e-11 -6.46408e-11)
(-4.11996e-11 2.37096e-11 6.66394e-12)
(3.46253e-10 -4.54426e-10 -1.28047e-10)
(2.42854e-11 -3.72104e-11 -1.01655e-11)
(-3.33783e-10 4.43623e-10 -3.97211e-11)
(5.00795e-10 2.11097e-11 -6.35173e-11)
(-8.02196e-10 -1.27442e-10 -1.52967e-10)
(6.37912e-10 -1.68938e-10 1.70154e-10)
(-6.81679e-11 -6.75185e-11 -1.08584e-10)
(-1.89109e-10 -2.62726e-10 -7.23681e-11)
(5.956e-11 4.06777e-10 -1.06113e-10)
(5.29031e-11 -1.74085e-10 1.52109e-10)
(-1.23801e-09 1.3234e-09 -3.36937e-11)
(4.95118e-10 -2.4314e-09 1.10389e-09)
(1.59425e-09 1.97935e-10 -1.61825e-09)
(2.07501e-10 4.12755e-10 -1.78677e-11)
(-1.10327e-10 4.78291e-11 -2.56213e-11)
(6.78183e-11 -7.99214e-11 -1.25146e-10)
(1.28689e-10 -6.91009e-11 -7.6059e-11)
(7.42129e-11 5.29145e-11 -4.34034e-11)
(-2.44938e-10 1.98851e-10 -1.38088e-11)
(-1.37544e-10 7.53432e-11 -1.22332e-10)
(-1.24329e-11 1.36069e-10 2.04475e-10)
(-9.49692e-11 -3.3372e-11 2.01792e-10)
(1.05565e-10 -6.76044e-11 9.52518e-11)
(8.76349e-10 1.38574e-09 -1.16432e-10)
(-3.81378e-10 1.24489e-13 -4.25288e-11)
(1.83393e-10 -8.33209e-10 7.14587e-11)
(3.63572e-11 4.32315e-11 -7.07851e-11)