/*--------------------------------*- C++ -*----------------------------------*\
  =========                 |
  \\      /  F ield         | OpenFOAM: The Open Source CFD Toolbox
   \\    /   O peration     | Website:  https://openfoam.org
    \\  /    A nd           | Version:  8
     \\/     M anipulation  |
\*---------------------------------------------------------------------------*/
FoamFile
{
    version     2.0;
    format      ascii;
    class       vectorFieldField;
    location    "0/lagrangian/kinematicCloud";
    object      collisionRecordsPairData;
}
// * * * * * * * * * * * * * * * * * * * * * * * * * * * * * * * * * * * * * //


1722
(
2((8.68459e-08 -1.56708e-07 1.75815e-09) (1.42653e-08 7.40057e-10 -5.4481e-10))
2((-1.42653e-08 -7.40057e-10 5.4481e-10) (-1.40068e-08 -1.36772e-10 4.23532e-09))
4((1.05025e-07 5.27369e-09 -2.83569e-08) (1.57898e-07 5.36512e-09 -2.8193e-08) (-8.68459e-08 1.56708e-07 -1.75815e-09) (-4.9775e-08 8.54508e-08 2.41086e-09))
3((1.23869e-07 -2.12673e-07 -1.20602e-08) (1.4212e-07 -2.47743e-07 -1.53819e-08) (-3.35358e-08 -3.71535e-10 1.05099e-08))
3((3.35358e-08 3.71535e-10 -1.05099e-08) (8.89017e-08 2.8973e-09 -9.3417e-09) (4.9775e-08 -8.54508e-08 -2.41086e-09))
5((9.18631e-08 -1.63826e-10 -9.1082e-10) (5.66227e-07 -8.29401e-10 4.29238e-08) (1.25866e-07 -2.18198e-07 3.43116e-08) (-1.40541e-07 2.42727e-07 2.39106e-10) (3.11267e-08 5.85635e-08 -6.96848e-08))
5((2.13978e-09 3.83404e-10 1.38363e-08) (-1.4212e-07 2.47743e-07 1.53819e-08) (5.08646e-07 1.52037e-09 -5.10941e-08) (7.01262e-08 -1.25664e-07 -7.12862e-08) (-3.11267e-08 -5.85635e-08 6.96848e-08))
5((-7.32941e-07 6.89774e-07 1.08219e-08) (-5.66227e-07 8.29401e-10 -4.29238e-08) (-7.01262e-08 1.25664e-07 7.12862e-08) (1.55899e-07 2.70489e-07 8.01696e-09) (-1.39074e-07 -2.4063e-07 3.06857e-09))
3((1.40541e-07 -2.42727e-07 -2.39106e-10) (1.47873e-08 -5.80249e-08 -1.09472e-08) (1.39074e-07 2.4063e-07 -3.06857e-09))
4((-9.9878e-08 2.72889e-08 5.75877e-09) (-4.9515e-07 6.31702e-07 -2.46131e-08) (4.30964e-07 1.23254e-07 2.04117e-08) (-1.14479e-07 -2.10144e-07 2.78311e-09))
4((-5.30045e-07 -7.52789e-08 -1.19587e-08) (-4.30964e-07 -1.23254e-07 -2.04117e-08) (-2.37909e-08 2.97104e-08 -1.19797e-08) (-1.47873e-08 5.80249e-08 1.09472e-08))
3((-2.45282e-09 -1.29964e-07 2.88122e-10) (7.03534e-07 2.02899e-07 8.0062e-09) (4.9515e-07 -6.31702e-07 2.46131e-08))
3((-5.91456e-08 4.82739e-08 -8.63186e-09) (2.45282e-09 1.29964e-07 -2.88122e-10) (3.97381e-08 1.84303e-08 -5.75127e-09))
3((-5.59859e-08 -1.88228e-08 -2.31398e-08) (-1.6035e-08 -4.91856e-09 -1.42591e-08) (-5.06e-08 6.31113e-08 -1.27566e-08))
4((6.59486e-08 -8.31319e-08 -1.19267e-08) (1.93116e-07 6.49956e-08 9.45604e-09) (1.92898e-07 6.59703e-08 2.07198e-08) (6.89295e-08 -7.03572e-08 -4.95323e-09))
4((-7.72876e-08 7.387e-08 6.79436e-09) (-1.93116e-07 -6.49956e-08 -9.45604e-09) (5.06e-08 -6.31113e-08 1.27566e-08) (2.17043e-08 9.28015e-09 -2.0243e-09))
3((-6.89295e-08 7.03572e-08 4.95323e-09) (-8.39792e-09 7.20915e-09 3.82506e-09) (2.16849e-08 1.07237e-07 3.45051e-09))
4((-7.27119e-08 1.29852e-07 2.27677e-08) (-5.20298e-08 4.11281e-08 4.5221e-08) (7.38141e-08 2.58749e-08 3.21395e-08) (-2.16849e-08 -1.07237e-07 -3.45051e-09))
3((-1.77739e-07 1.54949e-07 -2.01224e-08) (-3.75314e-07 3.21268e-07 -3.0508e-08) (-5.7202e-08 -3.0665e-07 6.27824e-09))
4((3.6218e-07 -2.91012e-07 7.51552e-08) (1.60356e-07 -1.39035e-07 6.12526e-08) (2.17532e-07 7.68191e-08 4.99035e-08) (5.7202e-08 3.0665e-07 -6.27824e-09))
5((1.4521e-07 7.72015e-07 7.67068e-09) (7.5934e-08 4.05283e-07 4.63179e-08) (3.75314e-07 -3.21268e-07 3.0508e-08) (-1.48398e-07 6.88954e-08 -2.34527e-08) (-2.17532e-07 -7.68191e-08 -4.99035e-08))
4((-1.60356e-07 1.39035e-07 -6.12526e-08) (-1.10044e-06 4.43612e-07 -4.10136e-08) (-2.86905e-07 -1.36429e-06 -9.59376e-08) (-7.5934e-08 -4.05283e-07 -4.63179e-08))
3((-2.34013e-07 1.97733e-07 -1.28824e-08) (-3.55922e-07 2.91707e-07 -6.80944e-09) (1.40955e-07 5.30182e-08 -1.42153e-08))
5((2.86905e-07 1.36429e-06 9.59376e-08) (8.4466e-08 5.17717e-07 1.21822e-07) (9.01067e-07 3.37725e-07 -3.81021e-08) (2.34013e-07 -1.97733e-07 1.28824e-08) (2.20824e-08 -1.12209e-08 -7.63187e-10))
4((-1.81846e-07 1.00013e-07 2.1655e-08) (-8.4466e-08 -5.17717e-07 -1.21822e-07) (-1.60812e-07 -5.45808e-07 -3.27013e-08) (-8.96987e-08 7.58001e-08 2.53342e-08))
5((2.8441e-07 -2.30148e-07 3.15285e-08) (4.88487e-09 1.25907e-07 6.52868e-08) (1.60812e-07 5.45808e-07 3.27013e-08) (-3.00585e-08 1.74727e-08 -7.87437e-10) (3.66823e-07 1.38732e-07 -3.68456e-08))
5((-4.88487e-09 -1.25907e-07 -6.52868e-08) (3.8332e-08 -2.73185e-08 1.09924e-08) (-1.44144e-07 -5.48146e-08 -5.1331e-08) (-1.16427e-08 -2.57114e-08 -4.75157e-08) (-4.87498e-08 4.24418e-08 6.95802e-08))
3((-3.8332e-08 2.73185e-08 -1.09924e-08) (-1.53853e-08 1.1564e-08 -5.43219e-09) (8.2362e-09 6.11993e-08 -2.63046e-08))
4((1.16427e-08 2.57114e-08 4.75157e-08) (4.45875e-09 4.79714e-08 4.63404e-08) (8.69108e-09 -5.86345e-09 2.10046e-08) (-1.7905e-08 -7.17523e-09 2.02743e-08))
4((-9.97955e-09 7.13832e-09 -8.33193e-09) (-8.69108e-09 5.86345e-09 -2.10046e-08) (-8.2362e-09 -6.11993e-08 2.63046e-08) (-6.22342e-08 -3.05202e-08 4.13583e-08))
4((-8.92038e-08 -3.4031e-08 -6.79407e-08) (-4.81464e-08 4.20618e-08 -4.8428e-08) (-4.45875e-09 -4.79714e-08 -4.63404e-08) (6.22342e-08 3.05202e-08 -4.13583e-08))
4((4.81464e-08 -4.20618e-08 4.8428e-08) (9.48756e-08 -7.6535e-08 3.71484e-08) (1.52606e-08 5.95163e-09 2.28115e-08) (-5.93791e-08 -2.7814e-08 3.64519e-08))
3((-1.52606e-08 -5.95163e-09 -2.28115e-08) (-3.68042e-08 -1.08195e-08 -2.29666e-08) (-3.90976e-08 3.85908e-08 -1.72795e-10))
2((3.90976e-08 -3.85908e-08 1.72795e-10) (4.51258e-08 -2.71115e-08 1.14326e-09))
3((-2.03777e-07 -2.08564e-07 2.56053e-08) (-3.6215e-07 -2.58978e-07 2.06954e-08) (-1.60915e-07 1.48155e-07 -6.36858e-09))
3((4.86338e-07 1.96871e-07 -8.96045e-09) (4.30701e-09 -7.08336e-08 -1.70883e-08) (3.6215e-07 2.58978e-07 -2.06954e-08))
3((-4.30701e-09 7.08336e-08 1.70883e-08) (-2.74068e-08 2.3184e-07 2.8679e-08) (1.27169e-07 -5.46041e-08 4.83722e-09))
4((-1.28835e-08 1.16987e-07 2.75606e-08) (4.15358e-08 3.3584e-08 -8.84666e-09) (7.20503e-08 5.3591e-08 -2.54657e-08) (-2.75019e-08 2.13739e-07 -7.55723e-10))
3((1.28835e-08 -1.16987e-07 -2.75606e-08) (2.74068e-08 -2.3184e-07 -2.8679e-08) (1.40412e-07 1.04649e-07 1.12264e-08))
2((-5.34556e-08 1.52475e-08 -1.91451e-09) (1.35967e-09 1.04194e-08 -5.83991e-10))
3((-7.93012e-08 -5.7116e-08 5.99219e-09) (-4.15358e-08 -3.3584e-08 8.84666e-09) (-1.0386e-07 4.36307e-08 2.21171e-08))
5((-2.48952e-07 -1.84526e-07 -3.34983e-08) (3.95952e-08 -3.54514e-07 -3.57653e-08) (1.0386e-07 -4.36307e-08 -2.21171e-08) (-1.80385e-07 -1.38123e-07 -9.27433e-09) (2.75019e-08 -2.13739e-07 7.55723e-10))
4((2.39143e-07 -1.01756e-07 8.46576e-09) (1.58887e-07 -6.91803e-08 -3.35554e-09) (2.36662e-08 1.09425e-07 4.30338e-09) (1.80385e-07 1.38123e-07 9.27433e-09))
5((-1.58887e-07 6.91803e-08 3.35554e-09) (-1.48542e-07 -1.20304e-07 1.8946e-08) (2.19695e-09 1.82741e-07 2.59009e-08) (-3.95952e-08 3.54514e-07 3.57653e-08) (-3.25817e-08 2.40644e-08 -1.95157e-08))
2((-2.36662e-08 -1.09425e-07 -4.30338e-09) (1.67096e-08 -1.07065e-07 3.44681e-10))
3((7.19991e-09 -2.25127e-07 -3.12721e-08) (-2.19695e-09 -1.82741e-07 -2.59009e-08) (3.67017e-08 2.75194e-08 -3.01259e-09))
4((2.15959e-08 1.65612e-08 2.12947e-09) (-3.67017e-08 -2.75194e-08 3.01259e-09) (1.02873e-08 -6.89707e-08 -1.95447e-08) (-1.67096e-08 1.07065e-07 -3.44681e-10))
4((-7.19991e-09 2.25127e-07 3.12721e-08) (1.13157e-08 1.27844e-08 -1.07697e-09) (-2.92663e-08 2.19386e-07 2.89258e-08) (-4.19455e-09 -1.80512e-09 -3.79522e-10))
4((-1.13157e-08 -1.27844e-08 1.07697e-09) (2.03852e-08 1.45199e-08 1.43597e-08) (-1.02873e-08 6.89707e-08 1.95447e-08) (4.7915e-09 -3.12585e-08 4.43303e-09))
2((2.53168e-08 1.97069e-08 -4.75991e-10) (-4.7915e-09 3.12585e-08 -4.43303e-09))
3((-1.40096e-07 -1.06301e-07 4.01915e-08) (-2.51083e-07 -1.97901e-07 2.91823e-08) (-2.80916e-08 1.9683e-07 3.04689e-08))
4((2.51083e-07 1.97901e-07 -2.91823e-08) (3.51704e-08 -1.47117e-08 -1.59141e-08) (-2.81231e-08 1.96339e-07 -3.89086e-09) (1.40829e-07 1.09365e-07 -2.76684e-08))
4((5.37265e-08 4.60479e-08 -7.5227e-08) (1.51446e-07 1.157e-07 -4.23337e-08) (2.80916e-08 -1.9683e-07 -3.04689e-08) (2.4623e-08 -1.24627e-08 -6.14023e-08))
5((-5.37265e-08 -4.60479e-08 7.5227e-08) (-3.21466e-07 1.3259e-07 -1.57033e-08) (-3.62498e-07 -2.99862e-07 5.82206e-08) (8.2057e-10 -2.79564e-10 1.39805e-09) (2.81231e-08 -1.96339e-07 3.89086e-09))
3((3.21466e-07 -1.3259e-07 1.57033e-08) (-1.60355e-08 9.14455e-08 -2.00189e-08) (3.46871e-07 2.71686e-07 5.66414e-09))
2((-4.56647e-09 1.97404e-09 -2.39093e-09) (-8.84629e-10 2.71986e-09 -1.11372e-08))
4((-6.89067e-07 2.75173e-07 7.15824e-08) (-7.74342e-07 -6.28238e-07 3.2133e-08) (1.60355e-08 -9.14455e-08 2.00189e-08) (-3.08951e-07 -2.41945e-07 -1.14714e-08))
4((7.74342e-07 6.28238e-07 -3.2133e-08) (1.49981e-06 -3.15424e-07 -7.44552e-09) (8.02632e-07 -3.22437e-07 4.64066e-08) (8.84629e-10 -2.71986e-09 1.11372e-08))
3((9.55077e-08 -6.05985e-07 -3.17765e-08) (-4.84777e-07 -3.91169e-07 -5.0488e-09) (-1.97758e-08 1.16385e-08 9.2981e-09))
4((-4.27365e-07 -3.43932e-07 -7.96882e-09) (-3.58289e-08 -3.5958e-08 2.22124e-08) (-9.55077e-08 6.05985e-07 3.17765e-08) (-5.94184e-08 2.42939e-08 -3.05044e-09))
3((3.58289e-08 3.5958e-08 -2.22124e-08) (3.03967e-08 6.31306e-09 -3.20533e-08) (-4.1856e-08 1.99696e-08 1.47838e-09))
2((4.1856e-08 -1.99696e-08 -1.47838e-09) (5.32982e-08 -1.84024e-08 -1.01438e-09))
2((-4.38076e-09 2.83894e-09 -1.88988e-09) (-1.39783e-08 -6.51e-09 -1.61426e-08))
1((-3.70499e-08 -1.86332e-08 6.46525e-09))
3((8.92649e-08 -6.70083e-08 -1.57956e-08) (9.5833e-08 -6.87866e-08 -8.55388e-09) (3.70499e-08 1.86332e-08 -6.46525e-09))
4((-2.67084e-07 -6.25315e-08 -1.65899e-08) (-1.91893e-07 -3.65665e-07 -3.86654e-08) (-9.5833e-08 6.87866e-08 8.55388e-09) (-1.76908e-07 2.96151e-07 1.58449e-08))
4((1.91893e-07 3.65665e-07 3.86654e-08) (9.72912e-07 -3.18809e-07 2.04214e-08) (-3.56702e-08 -6.26802e-08 1.16075e-08) (7.29197e-07 9.20097e-09 6.0235e-09))
4((1.76908e-07 -2.96151e-07 -1.58449e-08) (-8.63001e-08 1.43222e-07 1.10585e-08) (-7.29197e-07 -9.20097e-09 -6.0235e-09) (-4.10844e-07 -8.30931e-09 -7.38857e-09))
1((2.01463e-08 2.22141e-10 3.62592e-09))
4((3.60278e-07 -4.89918e-08 -2.25112e-08) (-1.38738e-07 1.32988e-08 -1.232e-08) (2.13447e-07 -3.78375e-07 -1.45583e-08) (5.50633e-08 2.961e-07 -1.8661e-08))
4((2.28047e-07 4.12656e-07 -2.40925e-08) (8.25309e-08 4.3588e-07 -1.31335e-08) (2.57818e-08 3.91294e-10 1.48297e-08) (4.33315e-08 3.40312e-10 1.23699e-08))
3((-6.71929e-07 3.18461e-08 2.19424e-08) (-3.60278e-07 4.89918e-08 2.25112e-08) (-8.25309e-08 -4.3588e-07 1.31335e-08))
3((-5.50633e-08 -2.961e-07 1.8661e-08) (-1.40587e-07 -2.52894e-07 -7.44454e-10) (-2.57818e-08 -3.91294e-10 -1.48297e-08))
4((2.41923e-08 6.01019e-10 2.84753e-08) (1.05262e-07 -9.77194e-10 2.63858e-08) (-2.28047e-07 -4.12656e-07 2.40925e-08) (-1.7691e-07 -3.10057e-07 3.78976e-08))
4((6.29739e-07 7.28418e-09 -1.25964e-08) (4.03309e-07 -3.32713e-09 -1.87738e-09) (1.7691e-07 3.10057e-07 -3.78976e-08) (1.31057e-08 -2.20906e-08 1.16184e-08))
3((-8.88513e-07 1.72482e-07 3.32261e-08) (-4.03309e-07 3.32713e-09 1.87738e-09) (-3.55275e-07 -6.1762e-07 2.85311e-08))
2((-7.50184e-07 1.3996e-07 1.02953e-08) (2.14736e-08 3.74145e-08 2.39603e-09))
4((5.06598e-07 -4.38634e-10 -4.68642e-09) (3.55275e-07 6.1762e-07 -2.85311e-08) (-6.44727e-08 1.26572e-08 1.74418e-08) (-2.14736e-08 -3.74145e-08 -2.39603e-09))
3((7.50184e-07 -1.3996e-07 -1.02953e-08) (1.33522e-07 2.31224e-07 -4.96205e-09) (-1.2427e-07 -1.49974e-10 -1.09108e-08))
3((-1.05025e-07 -5.27369e-09 2.83569e-08) (-2.47185e-07 -8.81211e-09 2.66278e-08) (1.37356e-07 -2.35862e-07 2.93951e-09))
3((-1.77933e-08 2.957e-08 -9.14143e-09) (1.40068e-08 1.36772e-10 -4.23532e-09) (6.36416e-10 9.38704e-11 -3.34472e-09))
3((2.47185e-07 8.81211e-09 -2.66278e-08) (2.59518e-07 2.47133e-09 -1.33785e-08) (1.77933e-08 -2.957e-08 9.14143e-09))
4((-1.37356e-07 2.35862e-07 -2.93951e-09) (-1.37881e-07 2.41402e-07 2.05568e-09) (-8.89017e-08 -2.8973e-09 9.3417e-09) (-6.76625e-08 2.68523e-10 -9.04682e-09))
3((-2.13978e-09 -3.83404e-10 -1.38363e-08) (-2.04099e-07 -1.24858e-08 -1.5166e-08) (-1.55899e-07 -2.70489e-07 -8.01696e-09))
5((2.04099e-07 1.24858e-08 1.5166e-08) (-2.01314e-09 9.17029e-08 -3.66612e-09) (1.36539e-09 2.23813e-09 -1.42991e-08) (4.93455e-07 -4.04932e-08 2.12835e-08) (1.37881e-07 -2.41402e-07 -2.05568e-09))
3((-7.56636e-07 2.74901e-07 -9.65604e-09) (-6.89553e-07 -5.21645e-07 3.76731e-09) (2.01314e-09 -9.17029e-08 3.66612e-09))
3((6.89553e-07 5.21645e-07 -3.76731e-09) (7.32941e-07 -6.89774e-07 -1.08219e-08) (5.55043e-09 -1.49953e-07 -4.52992e-08))
3((5.30045e-07 7.52789e-08 1.19587e-08) (4.2215e-07 -2.41421e-08 1.11777e-08) (-5.55043e-09 1.49953e-07 4.52992e-08))
4((-7.03534e-07 -2.02899e-07 -8.0062e-09) (-2.6274e-07 6.7489e-08 1.34449e-08) (-9.56375e-08 3.8952e-07 -3.01619e-08) (2.37909e-08 -2.97104e-08 1.19797e-08))
3((2.6274e-07 -6.7489e-08 -1.34449e-08) (2.55496e-08 -1.76227e-09 3.57232e-09) (1.92337e-07 -2.59112e-07 -2.81793e-08))
2((9.56375e-08 -3.8952e-07 3.01619e-08) (2.39723e-07 -3.22621e-07 3.20399e-08))
3((5.91456e-08 -4.82739e-08 8.63186e-09) (7.14468e-08 -1.24279e-09 1.45072e-08) (1.6035e-08 4.91856e-09 1.42591e-08))
4((-7.14468e-08 1.24279e-09 -1.45072e-08) (-3.27672e-07 6.26269e-08 -1.64826e-08) (-2.39723e-07 3.22621e-07 -3.20399e-08) (1.37138e-08 3.68416e-08 7.83786e-10))
3((-2.17043e-08 -9.28015e-09 2.0243e-09) (-1.37138e-08 -3.68416e-08 -7.83786e-10) (9.89538e-09 -5.53283e-09 -2.08169e-09))
3((7.72876e-08 -7.387e-08 -6.79436e-09) (6.51436e-08 -2.37157e-08 -5.40211e-09) (-1.29723e-08 -6.40594e-08 -1.86366e-09))
4((1.29723e-08 6.40594e-08 1.86366e-09) (1.06854e-08 5.2881e-08 1.92591e-09) (8.39792e-09 -7.20915e-09 -3.82506e-09) (5.75687e-09 -2.56471e-09 4.01746e-09))
2((-5.75687e-09 2.56471e-09 -4.01746e-09) (-1.67448e-09 -8.22637e-09 2.74183e-09))
4((-5.00739e-07 1.21809e-07 -4.7713e-08) (5.20298e-08 -4.11281e-08 -4.5221e-08) (-1.4521e-07 -7.72015e-07 -7.67068e-09) (-1.06854e-08 -5.2881e-08 -1.92591e-09))
4((5.00739e-07 -1.21809e-07 4.7713e-08) (4.48844e-07 1.56024e-07 3.15841e-08) (9.49514e-08 -9.01069e-08 2.55723e-08) (1.67448e-09 8.22637e-09 -2.74183e-09))
3((1.48398e-07 -6.88954e-08 2.34527e-08) (1.84762e-07 6.81424e-08 1.86659e-08) (7.20991e-09 4.12872e-08 1.63562e-08))
4((6.27189e-07 -6.04937e-07 -4.04787e-08) (1.10044e-06 -4.43612e-07 4.10136e-08) (5.71343e-07 1.87253e-07 8.70044e-08) (-7.20991e-09 -4.12872e-08 -1.63562e-08))
2((-2.20824e-08 1.12209e-08 7.63187e-10) (-2.29313e-08 1.97328e-08 8.49334e-10))
3((-6.27189e-07 6.04937e-07 4.04787e-08) (-3.86546e-07 3.32042e-07 7.77394e-08) (1.03874e-07 5.28875e-07 -5.07709e-08))
5((-5.65412e-09 1.46541e-08 6.82615e-08) (-2.66512e-07 -1.02484e-07 2.3203e-08) (-1.03874e-07 -5.28875e-07 5.07709e-08) (3.16592e-07 1.09175e-07 -2.82523e-08) (2.29313e-08 -1.97328e-08 -8.49334e-10))
3((1.81846e-07 -1.00013e-07 -2.1655e-08) (1.13103e-08 -9.72807e-09 3.23887e-09) (2.66512e-07 1.02484e-07 -2.3203e-08))
3((3.00585e-08 -1.74727e-08 7.87437e-10) (-2.71855e-08 2.4688e-08 6.5683e-09) (1.10374e-07 4.19275e-08 -1.79124e-10))
3((-3.45672e-08 3.0883e-08 3.06272e-10) (-1.13103e-08 9.72807e-09 -3.23887e-09) (-1.10374e-07 -4.19275e-08 1.79124e-10))
3((2.71855e-08 -2.4688e-08 -6.5683e-09) (2.61062e-08 -2.09201e-08 -5.20009e-09) (-7.61647e-10 -5.00056e-09 -5.68243e-10))
3((1.59979e-08 -1.26583e-08 1.27549e-08) (1.53853e-08 -1.1564e-08 5.43219e-09) (7.61647e-10 5.00056e-09 5.68243e-10))
4((-2.28122e-07 -9.68508e-08 -3.71506e-08) (5.93791e-08 2.7814e-08 -3.64519e-08) (3.04472e-07 -2.42806e-07 3.29416e-08) (9.97955e-09 -7.13832e-09 8.33193e-09))
4((1.78434e-08 1.34699e-07 -1.759e-08) (-9.48756e-08 7.6535e-08 -3.71484e-08) (1.38684e-07 6.46975e-08 -1.15873e-08) (-1.12674e-07 8.60059e-08 -2.70817e-08))
3((-1.38684e-07 -6.46975e-08 1.15873e-08) (-3.73949e-07 2.78533e-07 -1.96745e-08) (-3.04472e-07 2.42806e-07 -3.29416e-08))
5((2.03777e-07 2.08564e-07 -2.56053e-08) (4.52518e-07 1.86689e-07 -3.508e-08) (-1.78434e-08 -1.34699e-07 1.759e-08) (-4.51258e-08 2.71115e-08 -1.14326e-09) (-5.0785e-09 5.28978e-09 1.38226e-08))
4((-4.52518e-07 -1.86689e-07 3.508e-08) (-1.96284e-07 1.35381e-07 2.27023e-08) (1.12674e-07 -8.60059e-08 2.70817e-08) (4.0783e-08 1.89619e-08 3.0619e-08))
3((1.60915e-07 -1.48155e-07 6.36858e-09) (1.98273e-07 -8.43982e-08 4.78102e-09) (1.19844e-08 1.2086e-08 -2.40526e-09))
2((-1.19844e-08 -1.2086e-08 2.40526e-09) (5.0785e-09 -5.28978e-09 -1.38226e-08))
5((-3.7671e-07 -2.81432e-07 5.45392e-09) (-1.40412e-07 -1.04649e-07 -1.12264e-08) (2.75799e-08 -2.27599e-07 2.4077e-08) (-1.27169e-07 5.46041e-08 -4.83722e-09) (4.14216e-08 -1.70781e-08 -3.59885e-09))
4((3.7671e-07 2.81432e-07 -5.45392e-09) (2.73294e-07 2.01145e-07 -1.75936e-08) (-1.98273e-07 8.43982e-08 -4.78102e-09) (-1.19073e-07 5.06707e-08 3.5959e-08))
4((-8.1928e-08 -5.96887e-08 2.16265e-08) (-2.75799e-08 2.27599e-07 -2.4077e-08) (-7.20503e-08 -5.3591e-08 2.54657e-08) (-2.78186e-08 2.20357e-07 -2.38652e-08))
3((6.77818e-08 4.6695e-08 -1.41459e-08) (8.1928e-08 5.96887e-08 -2.16265e-08) (-4.14216e-08 1.70781e-08 3.59885e-09))
4((4.16774e-07 3.10697e-07 2.70128e-08) (2.48952e-07 1.84526e-07 3.34983e-08) (2.78186e-08 -2.20357e-07 2.38652e-08) (4.37131e-09 -3.12097e-08 1.23902e-08))
4((1.48542e-07 1.20304e-07 -1.8946e-08) (1.45851e-07 1.03113e-07 -6.73422e-09) (6.10587e-09 -4.90403e-09 -3.8073e-09) (-4.37131e-09 3.12097e-08 -1.23902e-08))
3((3.25817e-08 -2.40644e-08 1.95157e-08) (1.99566e-08 -7.98465e-09 1.14795e-08) (2.15372e-09 -2.45855e-08 2.2299e-09))
2((4.19455e-09 1.80512e-09 3.79522e-10) (-2.15372e-09 2.45855e-08 -2.2299e-09))
4((-2.59613e-08 -2.42287e-08 8.1185e-09) (1.06743e-07 4.28704e-08 5.36872e-09) (2.79677e-08 -2.45428e-07 -3.24234e-09) (-1.34071e-08 6.27264e-09 -1.20829e-08))
3((3.10299e-08 -2.84188e-07 -2.83023e-08) (2.92663e-08 -2.19386e-07 -2.89258e-08) (-1.06743e-07 -4.28704e-08 -5.36872e-09))
4((-2.14576e-08 1.1241e-07 4.86386e-08) (-3.10299e-08 2.84188e-07 2.83023e-08) (1.40096e-07 1.06301e-07 -4.01915e-08) (-1.65325e-07 -6.93659e-08 -6.98632e-09))
4((-2.79677e-08 2.45428e-07 3.24234e-09) (1.65325e-07 6.93659e-08 6.98632e-09) (-1.26891e-08 8.9028e-08 1.01416e-08) (-1.56232e-09 -1.84915e-09 1.67022e-08))
4((9.12958e-08 3.76582e-08 -1.36879e-08) (6.4833e-08 3.90249e-08 -2.08876e-08) (1.18295e-08 -8.78897e-08 -1.35977e-08) (1.26891e-08 -8.9028e-08 -1.01416e-08))
4((-9.12958e-08 -3.76582e-08 1.36879e-08) (-1.53068e-08 -5.84057e-08 -5.16831e-08) (2.14576e-08 -1.1241e-07 -4.86386e-08) (-1.51446e-07 -1.157e-07 4.23337e-08))
5((-3.08131e-07 -1.26652e-07 2.55942e-09) (-3.28369e-08 1.49814e-07 6.78193e-08) (1.53068e-08 5.84057e-08 5.16831e-08) (-3.46871e-07 -2.71686e-07 -5.66414e-09) (-2.4623e-08 1.24627e-08 6.14023e-08))
5((-1.06497e-07 6.82025e-07 9.78022e-09) (8.13086e-07 8.65029e-08 -4.94257e-08) (-1.0461e-07 7.03943e-07 7.13124e-08) (1.9545e-07 1.57049e-07 6.56908e-08) (6.89067e-07 -2.75173e-07 -7.15824e-08))
5((-1.9545e-07 -1.57049e-07 -6.56908e-08) (4.84777e-07 3.91169e-07 5.0488e-09) (-2.57394e-07 9.93532e-08 4.58277e-09) (-8.02632e-07 3.22437e-07 -4.64066e-08) (3.23028e-08 -2.04875e-07 -3.39396e-08))
5((1.06497e-07 -6.82025e-07 -9.78022e-09) (6.72914e-07 3.8434e-09 -4.13244e-08) (2.57394e-07 -9.93532e-08 -4.58277e-09) (-1.02774e-07 -8.23551e-08 4.90296e-09) (8.50396e-09 -5.54966e-08 1.0158e-08))
4((3.28369e-08 -1.49814e-07 -6.78193e-08) (1.0461e-07 -7.03943e-07 -7.13124e-08) (-1.89539e-07 -8.36225e-08 -9.05344e-09) (3.08951e-07 2.41945e-07 1.14714e-08))
4((4.27365e-07 3.43932e-07 7.96882e-09) (1.02774e-07 8.23551e-08 -4.90296e-09) (-3.23028e-08 2.04875e-07 3.39396e-08) (3.83014e-07 -1.47159e-07 3.29675e-09))
4((-5.25607e-08 3.42003e-07 -7.29025e-09) (-8.50396e-09 5.54966e-08 -1.0158e-08) (-3.83014e-07 1.47159e-07 -3.29675e-09) (-8.14775e-09 -1.54349e-09 8.77229e-09))
2((5.94184e-08 -2.42939e-08 3.05044e-09) (5.96277e-08 -2.06351e-08 -4.20903e-09))
4((-1.27874e-09 -2.13585e-09 9.55504e-12) (2.85399e-07 6.78769e-08 7.26339e-09) (-5.96277e-08 2.06351e-08 4.20903e-09) (5.25607e-08 -3.42003e-07 7.29025e-09))
3((-5.32982e-08 1.84024e-08 1.01438e-09) (-9.99052e-08 2.24203e-08 1.40346e-08) (1.37571e-08 -4.24913e-08 -1.43392e-08))
3((-4.3923e-08 -7.66963e-08 -4.20912e-09) (-7.34066e-08 -8.58338e-08 -8.47221e-09) (-1.37571e-08 4.24913e-08 1.43392e-08))
3((2.67084e-07 6.25315e-08 1.65899e-08) (4.3923e-08 7.66963e-08 4.20912e-09) (2.36178e-07 -5.30772e-08 5.01022e-09))
4((-2.36178e-07 5.30772e-08 -5.01022e-09) (-8.44293e-09 -1.37069e-08 1.89053e-08) (-2.31132e-07 3.24606e-07 1.4005e-08) (-7.55437e-08 -1.62784e-07 2.1846e-08))
3((4.10844e-07 8.30931e-09 7.38857e-09) (2.95775e-07 2.48943e-08 1.12592e-08) (7.55437e-08 1.62784e-07 -2.1846e-08))
3((2.29241e-07 -2.50254e-09 4.13783e-09) (8.63001e-08 -1.43222e-07 -1.10585e-08) (2.63311e-08 -4.93383e-08 -1.53744e-08))
4((6.71929e-07 -3.18461e-08 -2.19424e-08) (3.85878e-07 -8.78452e-08 -2.60381e-08) (1.53514e-07 2.59444e-07 1.2358e-08) (-2.63311e-08 4.93383e-08 1.53744e-08))
1((-4.33315e-08 -3.40312e-10 -1.23699e-08))
2((-1.05262e-07 9.77194e-10 -2.63858e-08) (-8.54454e-08 1.76293e-08 -1.18427e-08))
4((-1.51891e-07 -3.13046e-07 -2.81174e-08) (-1.8676e-07 -3.30894e-07 -1.72749e-08) (-6.2473e-09 -7.10886e-10 1.42879e-08) (8.54454e-08 -1.76293e-08 1.18427e-08))
5((-1.99026e-07 -3.4546e-07 4.03677e-09) (8.88513e-07 -1.72482e-07 -3.32261e-08) (5.67179e-07 2.3406e-10 -3.37103e-08) (1.8676e-07 3.30894e-07 1.72749e-08) (-1.99516e-07 3.46132e-07 1.21876e-08))
5((2.80999e-07 1.61275e-10 4.99729e-09) (6.22001e-07 8.65968e-10 -2.18958e-09) (3.70601e-07 6.42279e-07 7.32122e-09) (7.36203e-08 1.27645e-07 9.288e-09) (1.99516e-07 -3.46132e-07 -1.21876e-08))
4((1.99026e-07 3.4546e-07 -4.03677e-09) (-1.33522e-07 -2.31224e-07 4.96205e-09) (-6.22001e-07 -8.65968e-10 2.18958e-09) (6.44727e-08 -1.26572e-08 -1.74418e-08))
3((-3.79269e-07 -8.31625e-10 2.51835e-08) (1.2427e-07 1.49974e-10 1.09108e-08) (-7.36203e-08 -1.27645e-07 -9.288e-09))
1((-6.36416e-10 -9.38704e-11 3.34472e-09))
3((-2.63999e-07 1.06767e-09 4.29583e-09) (-2.59518e-07 -2.47133e-09 1.33785e-08) (-1.26083e-08 -2.31804e-08 -1.72478e-08))
4((1.26083e-08 2.31804e-08 1.72478e-08) (-1.36539e-09 -2.23813e-09 1.42991e-08) (6.76625e-08 -2.68523e-10 9.04682e-09) (-3.42693e-09 9.40062e-11 -5.63806e-09))
2((-3.80222e-07 3.1999e-07 -1.44185e-08) (-4.93455e-07 4.04932e-08 -2.12835e-08))
3((9.4031e-08 -3.92922e-07 4.34528e-08) (3.60229e-07 2.71372e-07 1.51918e-08) (7.56636e-07 -2.74901e-07 9.65604e-09))
3((-4.2215e-07 2.41421e-08 -1.11777e-08) (-9.6817e-08 -3.60639e-08 5.55969e-09) (-2.11224e-07 3.25493e-07 -1.0279e-08))
4((9.6817e-08 3.60639e-08 -5.55969e-09) (-1.66364e-07 2.54469e-07 -4.32479e-08) (-9.4031e-08 3.92922e-07 -4.34528e-08) (-1.34496e-08 -1.02387e-08 2.08402e-09))
4((-2.55496e-08 1.76227e-09 -3.57232e-09) (3.36114e-08 1.33815e-08 1.08425e-08) (1.84574e-07 -2.51324e-07 -1.13156e-08) (2.11224e-07 -3.25493e-07 1.0279e-08))
2((-1.92337e-07 2.59112e-07 2.81793e-08) (-7.68093e-08 3.16251e-07 2.57063e-08))
2((-1.84574e-07 2.51324e-07 1.13156e-08) (-7.61129e-08 3.02924e-07 7.6581e-09))
4((3.27672e-07 -6.26269e-08 1.64826e-08) (1.02069e-06 3.11735e-07 1.47012e-08) (-2.68259e-07 3.5421e-07 7.728e-09) (7.68093e-08 -3.16251e-07 -2.57063e-08))
3((-9.89538e-09 5.53283e-09 2.08169e-09) (-5.3848e-09 4.37923e-09 6.76979e-09) (1.6828e-09 1.13461e-08 4.33571e-09))
3((2.68259e-07 -3.5421e-07 -7.728e-09) (2.09745e-07 -2.01473e-07 2.4616e-09) (3.06199e-07 1.01607e-07 -1.23644e-08))
4((-6.51436e-08 2.37157e-08 5.40211e-09) (-1.11625e-08 1.18506e-08 1.74659e-09) (-8.41939e-08 -3.17208e-08 8.08135e-09) (-1.6828e-09 -1.13461e-08 -4.33571e-09))
3((8.41939e-08 3.17208e-08 -8.08135e-09) (8.53123e-08 2.42295e-08 -9.04714e-09) (5.3848e-09 -4.37923e-09 -6.76979e-09))
2((1.11625e-08 -1.18506e-08 -1.74659e-09) (1.49019e-08 -1.3239e-08 2.83957e-09))
3((-1.85289e-07 1.6353e-07 -3.44502e-08) (-9.49514e-08 9.01069e-08 -2.55723e-08) (-1.84762e-07 -6.81424e-08 -1.86659e-08))
3((1.83152e-07 -1.65125e-07 4.2265e-08) (5.55773e-08 -5.23139e-08 6.13885e-08) (2.46445e-07 8.50786e-08 -1.91092e-08))
3((-5.71343e-07 -1.87253e-07 -8.70044e-08) (-5.69219e-07 -2.10379e-07 -6.32357e-08) (-3.46278e-08 3.22081e-08 -6.91078e-08))
4((7.02447e-07 2.28476e-07 7.58797e-08) (5.69219e-07 2.10379e-07 6.32357e-08) (1.85289e-07 -1.6353e-07 3.44502e-08) (-3.90575e-09 3.30089e-09 -5.71351e-09))
3((-3.07787e-07 -1.04433e-07 -1.12602e-08) (-4.48844e-07 -1.56024e-07 -3.15841e-08) (-1.83152e-07 1.65125e-07 -4.2265e-08))
3((3.46278e-08 -3.22081e-08 6.91078e-08) (3.14428e-08 -3.05405e-08 7.19143e-08) (-4.50519e-09 -1.70158e-09 3.52795e-09))
4((-1.86002e-07 1.62079e-07 -8.73346e-08) (3.86546e-07 -3.32042e-07 -7.77394e-08) (3.9935e-07 1.36822e-07 4.59559e-08) (-3.16592e-07 -1.09175e-07 2.82523e-08))
2((5.65412e-09 -1.46541e-08 -6.82615e-08) (1.07018e-08 -1.13851e-08 -5.40217e-08))
4((1.09638e-07 5.67629e-07 -2.96223e-08) (9.36245e-08 6.34748e-07 1.42516e-08) (2.34805e-07 6.90281e-08 1.26088e-07) (-1.07018e-08 1.13851e-08 5.40217e-08))
3((3.45672e-08 -3.0883e-08 -3.06272e-10) (7.24936e-08 -5.79631e-08 1.21163e-08) (2.33325e-08 1.43977e-07 1.56966e-09))
4((-9.36245e-08 -6.34748e-07 -1.42516e-08) (4.51125e-08 3.11212e-07 2.51893e-08) (-7.24936e-08 5.79631e-08 -1.21163e-08) (7.94101e-07 2.32912e-07 -5.34111e-09))
4((4.26826e-08 -3.38655e-08 -7.82561e-10) (-2.33325e-08 -1.43977e-07 -1.56966e-09) (-2.61062e-08 2.09201e-08 5.20009e-09) (-6.3019e-09 -4.25428e-08 4.70827e-09))
5((-4.51125e-08 -3.11212e-07 -2.51893e-08) (-4.26826e-08 3.38655e-08 7.82561e-10) (4.55827e-07 7.151e-08 1.78199e-08) (-7.94022e-09 1.0049e-07 -3.7677e-08) (-1.99946e-07 -7.80325e-08 -2.59258e-08))
4((-1.59979e-08 1.26583e-08 -1.27549e-08) (2.28122e-07 9.68508e-08 3.71506e-08) (1.99946e-07 7.80325e-08 2.59258e-08) (6.3019e-09 4.25428e-08 -4.70827e-09))
3((-2.51598e-08 -1.0233e-07 4.44649e-08) (7.94022e-09 -1.0049e-07 3.7677e-08) (-2.04526e-08 -2.80214e-09 -2.65102e-08))
5((2.51598e-08 1.0233e-07 -4.44649e-08) (-8.04647e-09 -1.22859e-08 -2.68919e-08) (2.22414e-07 -1.9501e-08 -4.65102e-09) (3.73949e-07 -2.78533e-07 1.96745e-08) (-4.0783e-08 -1.89619e-08 -3.0619e-08))
4((8.04647e-09 1.22859e-08 2.68919e-08) (-2.31908e-08 -1.23222e-08 2.41766e-08) (1.96284e-07 -1.35381e-07 -2.27023e-08) (2.40644e-07 -3.52897e-08 -2.45153e-08))
4((2.31908e-08 1.23222e-08 -2.41766e-08) (-2.54668e-08 2.15151e-07 -1.9826e-08) (-2.73294e-07 -2.01145e-07 1.75936e-08) (2.51067e-08 -6.18063e-09 6.27599e-09))
5((2.54668e-08 -2.15151e-07 1.9826e-08) (-6.77818e-08 -4.6695e-08 1.41459e-08) (1.65689e-08 -1.40345e-07 -3.43801e-09) (8.99556e-08 -3.79849e-08 1.9017e-08) (1.19073e-07 -5.06707e-08 -3.5959e-08))
4((3.8868e-07 -1.64589e-07 1.9462e-08) (4.89994e-07 3.70013e-07 6.00337e-09) (-1.65689e-08 1.40345e-07 3.43801e-09) (4.69533e-09 -3.69115e-08 3.94311e-09))
4((-4.16774e-07 -3.10697e-07 -2.70128e-08) (-4.89994e-07 -3.70013e-07 -6.00337e-09) (2.40297e-08 -1.89684e-07 4.22197e-08) (-5.96367e-09 2.49758e-09 -5.35344e-08))
5((-6.77052e-08 4.44066e-08 1.8837e-08) (2.08372e-07 1.6069e-07 -2.08212e-08) (-4.69533e-09 3.69115e-08 -3.94311e-09) (3.02853e-07 2.30957e-07 -2.71134e-08) (5.96367e-09 -2.49758e-09 5.35344e-08))
4((-1.45851e-07 -1.03113e-07 6.73422e-09) (-2.08372e-07 -1.6069e-07 2.08212e-08) (-2.40297e-08 1.89684e-07 -4.22197e-08) (-1.01904e-07 6.46287e-08 -2.49913e-08))
2((1.01904e-07 -6.46287e-08 2.49913e-08) (1.08571e-07 -5.46429e-08 3.37613e-08))
3((-4.68279e-08 1.79494e-08 4.01527e-09) (-6.10587e-09 4.90403e-09 3.8073e-09) (6.61246e-09 -5.6573e-08 4.60756e-09))
3((4.68279e-08 -1.79494e-08 -4.01527e-09) (1.51747e-08 -1.20594e-07 -5.90073e-09) (-6.12376e-08 -4.49973e-08 -7.05289e-09))
3((-1.99566e-08 7.98465e-09 -1.14795e-08) (-8.76597e-09 6.93217e-08 -1.27136e-08) (-6.61246e-09 5.6573e-08 -4.60756e-09))
4((-5.59238e-08 -4.00967e-08 9.89465e-09) (-2.82036e-08 -2.11634e-08 1.84575e-08) (-1.51747e-08 1.20594e-07 5.90073e-09) (-2.31056e-08 1.84324e-07 -1.20125e-09))
3((5.59238e-08 4.00967e-08 -9.89465e-09) (2.59613e-08 2.42287e-08 -8.1185e-09) (8.76597e-09 -6.93217e-08 1.27136e-08))
3((2.31056e-08 -1.84324e-07 1.20125e-09) (3.18182e-08 -2.4398e-07 -8.3665e-10) (-8.64632e-08 -6.38477e-08 3.29694e-09))
2((1.34071e-08 -6.27264e-09 1.20829e-08) (1.56232e-09 1.84915e-09 -1.67022e-08))
3((-6.4833e-08 -3.90249e-08 2.08876e-08) (-1.41699e-07 -1.13578e-07 1.80867e-08) (1.8685e-07 -7.8372e-08 6.52204e-09))
3((3.08131e-07 1.26652e-07 -2.55942e-09) (2.38639e-07 1.60241e-07 -6.81447e-09) (-1.18295e-08 8.78897e-08 1.35977e-08))
3((-2.38639e-07 -1.60241e-07 6.81447e-09) (-1.48041e-07 -1.23466e-07 9.87887e-09) (-1.26524e-08 9.70417e-08 1.01783e-08))
3((5.06631e-08 4.50182e-08 -1.0222e-08) (1.26524e-08 -9.70417e-08 -1.01783e-08) (1.00942e-07 7.65108e-08 -9.46998e-09))
3((1.89539e-07 8.36225e-08 9.05344e-09) (3.4636e-07 -1.45001e-07 -1.10631e-09) (-5.06631e-08 -4.50182e-08 1.0222e-08))
3((-8.13086e-07 -8.65029e-08 4.94257e-08) (-6.67552e-07 2.73913e-07 4.14665e-08) (-1.78552e-07 -1.4617e-07 1.65791e-08))
4((-3.4636e-07 1.45001e-07 1.10631e-09) (-1.8423e-07 7.26067e-08 1.71568e-08) (1.78552e-07 1.4617e-07 -1.65791e-08) (6.23725e-09 5.11134e-09 -2.49655e-08))
3((-6.25223e-07 2.39863e-07 4.17329e-08) (-6.72914e-07 -3.8434e-09 4.13244e-08) (-7.37559e-09 4.62086e-08 -1.42428e-09))
3((6.67552e-07 -2.73913e-07 -4.14665e-08) (4.02095e-07 3.31451e-07 -3.71259e-08) (3.43024e-07 -1.3164e-07 -1.0764e-08))
2((8.14775e-09 1.54349e-09 -8.77229e-09) (7.37559e-09 -4.62086e-08 1.42428e-09))
3((-2.85399e-07 -6.78769e-08 -7.26339e-09) (2.60939e-08 -2.05754e-08 -3.85924e-09) (-9.52358e-08 3.51934e-07 -7.22375e-09))
5((1.27874e-09 2.13585e-09 -9.55504e-12) (7.34066e-08 8.58338e-08 8.47221e-09) (-1.21154e-07 3.82992e-07 2.67747e-08) (6.10064e-07 9.2588e-08 -7.52545e-09) (9.99052e-08 -2.24203e-08 -1.40346e-08))
4((8.89702e-08 5.10118e-08 1.32852e-08) (-6.10064e-07 -9.2588e-08 7.52545e-09) (-9.94872e-08 3.11578e-07 2.73672e-08) (9.52358e-08 -3.51934e-07 7.22375e-09))