/*--------------------------------*- C++ -*----------------------------------*\
  =========                 |
  \\      /  F ield         | OpenFOAM: The Open Source CFD Toolbox
   \\    /   O peration     | Website:  https://openfoam.org
    \\  /    A nd           | Version:  8
     \\/     M anipulation  |
\*---------------------------------------------------------------------------*/
FoamFile
{
    version     2.0;
    format      ascii;
    class       labelFieldField;
    location    "0/lagrangian/kinematicCloud";
    object      collisionRecordsPairOrigIdOfOther;
}
// * * * * * * * * * * * * * * * * * * * * * * * * * * * * * * * * * * * * * //


1722
(
2(108 37)
2(36 39)
4(38 35 36 109)
3(35 180 109)
3(107 110 108)
5(178 252 106 251 180)
5(181 107 106 252 179)
5(253 179 180 181 251)
3(179 324 252)
4(322 325 324 395)
4(254 323 326 251)
3(397 326 323)
3(469 325 396)
3(467 469 540)
4(467 540 538 611)
4(612 539 468 541)
3(539 683 682)
4(610 10 681 611)
3(681 42 41)
4(8 74 42 9)
5(10 74 9 43 41)
4(41 75 106 42)
3(106 40 72)
5(74 177 105 73 107)
4(178 106 248 105)
5(176 319 177 249 247)
5(248 320 318 390 247)
3(319 392 391)
4(319 461 391 389)
4(463 390 320 461)
4(460 462 390 391)
4(461 534 532 463)
3(462 531 533)
2(532 605)
3(605 674 676)
3(673 675 604)
3(674 746 747)
4(746 81 12 82)
3(11 675 747)
2(744 10)
3(151 11 82)
5(83 153 81 152 11)
4(151 153 223 82)
5(152 154 224 82 225)
2(152 294)
3(295 153 294)
4(364 224 365 223)
4(224 365 366 296)
4(295 435 294 436)
2(506 365)
3(437 577 578)
4(507 576 648 647)
4(648 508 507 579)
5(578 649 7 647 577)
3(648 9 579)
2(7 46)
4(10 46 649 650)
4(9 45 47 8)
3(156 47 84)
4(86 226 85 157)
3(156 296 227)
2(226 228)
2(296 366)
1(367)
3(366 368 298)
4(369 438 367 439)
4(368 437 507 439)
4(368 509 438 440)
1(507)
4(579 576 507 647)
4(717 579 647 650)
3(580 577 578)
3(577 716 578)
4(716 648 578 718)
4(786 719 717 716)
3(720 718 789)
2(791 789)
4(787 719 790 788)
3(788 790 792)
3(108 111 110)
3(111 37 40)
3(38 41 39)
4(38 182 109 112)
3(180 182 252)
5(181 183 112 113 110)
3(184 253 182)
3(183 252 254)
3(324 255 253)
4(325 327 398 324)
3(326 328 399)
2(326 470)
3(397 470 468)
4(469 471 398 541)
3(540 470 542)
3(540 613 683)
4(612 10 611 684)
2(683 11)
4(11 682 42 683)
4(10 12 44 684)
3(42 44 75)
4(108 74 76 43)
2(106 179)
3(75 180 179)
5(251 178 108 180 107)
3(177 250 179)
3(248 321 250)
3(322 178 249)
3(249 393 392)
3(464 320 321)
4(464 462 535 391)
4(605 462 535 606)
3(534 536 463)
5(604 606 534 533 677)
4(605 607 534 536)
3(604 748 677)
2(676 605)
5(748 746 12 675 13)
4(747 678 676 749)
4(13 747 11 83)
3(749 12 747)
4(84 82 12 154)
4(153 155 226 83)
3(153 297 296)
2(295 225)
4(368 366 438 439)
3(437 295 367)
4(508 366 507 438)
4(367 437 509 439)
4(508 510 580 438)
4(509 579 437 578)
5(580 650 508 649 578)
5(48 11 650 47 9)
5(10 85 48 46 86)
5(10 49 47 86 87)
4(579 10 651 9)
4(156 48 47 87)
4(158 48 86 88)
2(156 158)
4(229 159 157 87)
3(227 229 299)
3(369 229 228)
3(368 299 370)
4(369 300 441 440)
3(439 441 370)
3(510 439 580)
4(579 581 510 509)
1(578)
2(717 649)
4(651 720 723 648)
5(790 719 722 649 721)
5(794 790 722 792 720)
4(720 791 721 789)
3(793 791 721)
1(39)
3(42 111 112)
4(41 182 110 114)
2(185 182)
3(256 185 183)
3(254 256 328)
4(255 329 184 257)
4(327 329 400 255)
2(327 471)
2(328 472)
4(470 472 543 399)
3(541 614 613)
3(471 615 544)
4(612 685 614 542)
3(613 615 542)
2(613 13)
3(77 11 43)
3(12 46 14)
3(75 77 109)
4(46 76 44 78)
3(13 11 45)
3(76 110 78)
4(181 108 110 179)
2(179 252)
4(181 323 253 251)
3(250 323 393)
4(252 394 322 324)
4(394 322 321 464)
5(323 393 395 465 464)
4(392 463 394 393)
3(536 394 466)
5(465 607 537 535 606)
4(536 678 606 608)
4(607 749 748 679)
5(678 13 14 750 748)
4(15 84 749 85)
4(83 14 155 85)
5(86 155 14 15 84)
4(154 85 84 156)
2(155 157)
3(227 154 297)
3(226 298 157)
3(225 368 226)
4(368 228 227 369)
3(298 367 297)
3(298 440 299)
2(367 438)
3(509 440 511)
3(579 581 509)
3(580 511 652)
3(651 581 582)
3(650 12 652)
3(10 50 12)
4(651 13 11 653)
3(89 48 88)
3(11 13 51)
2(87 49)
3(158 160 230)
5(158 299 300 230 228)
4(231 229 301 159)
4(229 301 370 371)
2(300 441)
5(511 370 442 440 371)
3(511 580 509)
3(512 441 510)
3(651 582 580)
3(581 649 652)
1(651)
3(720 724 721)
2(653 649)
5(653 794 722 654 725)
3(794 792 795)
5(795 721 793 724 725)
4(794 793 796 725)
3(43 115 41)
2(42 44)
1(112)
4(42 186 44 116)
5(113 186 184 187 257)
4(115 187 185 188)
5(186 258 259 185 188)
2(256 185)
3(258 402 329)
4(328 330 256 401)
3(473 329 402)
4(403 472 401 474)
4(473 471 544 400)
4(545 472 474 543)
5(543 686 616 545 614)
5(688 545 687 615 686)
4(615 13 687 616)
6(13 15 616 686 14 688)
5(12 687 685 14 686)
5(47 13 45 687 15)
4(47 77 45 79)
3(112 46 80)
2(109 77)
5(111 109 181 180 182)
2(112 110)
4(181 254 183 110)
4(252 180 182 110)
3(252 325 254)
3(323 325 396)
3(467 394 396)
3(465 467 538)
4(395 539 466 468)
2(609 536)
2(466 609)
2(680 607)
4(537 681 610 538)
2(678 751)
3(608 752 681)
2(679 17)
3(87 14 85)
3(88 750 17)
3(15 159 88)
2(749 16)
2(85 158)
5(156 229 227 228 158)
4(86 159 229 157)
4(298 229 157 299)
3(369 300 228)
3(440 371 441)
3(510 370 369)
4(511 442 512 370)
3(441 581 510)
3(582 513 441)
4(512 652 583 653)
3(582 655 584)
2(12 582)
4(50 14 12 654)
3(52 89 50)
3(51 90 49)
3(91 89 160)
3(159 90 161)
4(162 91 231 160)
3(230 161 232)
4(302 300 372 230)
3(301 232 303)
3(301 443 373)
2(441 443)
4(372 514 444 442)
3(514 582 511)
2(514 583)
3(581 512 583)
3(584 513 582)
4(653 585 656 583)
3(584 724 723)
4(724 655 725 726)
4(654 795 724 794)
3(797 795 726)
4(43 45 115 46)
4(117 44 118 46)
3(44 47 45)
1(115)
2(187 186)
3(330 187 331)
2(260 187)
3(258 332 261)
4(333 402 331 404)
4(403 330 332 401)
4(475 402 473 404)
4(475 544 473 546)
4(403 547 474 476)
5(544 617 616 615 546)
2(545 474)
4(618 545 689 688)
6(16 616 689 15 617 687)
6(688 49 48 689 15 17)
5(46 80 48 14 15)
6(16 81 47 49 80 15)
4(47 113 48 79)
6(687 16 688 47 48 14)
5(111 113 183 79 184)
4(182 112 255 184)
4(255 182 325 253)
5(256 254 184 326 183)
5(397 324 326 253 254)
4(255 327 325 397)
4(395 468 324 397)
4(325 398 396 326)
3(469 396 467)
3(540 467 610)
3(611 609 539)
3(609 682 680)
3(680 753 17)
4(754 17 682 752)
4(16 753 752 751)
2(754 88)
4(16 89 87 18)
5(160 87 158 230 89)
5(158 228 301 157 300)
3(301 159 160)
4(230 302 229 372)
4(372 229 371 299)
5(370 300 442 372 443)
4(443 300 301 371)
5(372 444 514 442 371)
3(441 443 371)
3(514 512 585)
4(443 513 444 585)
2(583 585)
4(16 656 654 583)
2(13 655)
3(15 13 52)
3(14 16 54)
4(91 51 53 14)
3(54 52 92)
5(52 162 90 92 161)
4(53 163 91 93)
4(91 233 161 232)
4(231 302 233 162)
4(304 234 162 232)
1(302)
1(372)
3(304 444 375)
4(514 374 445 443)
5(512 444 515 513 443)
4(514 586 445 516)
2(584 586)
4(585 516 587 515)
3(656 727 654)
4(657 655 584 728)
3(654 796 797)
4(798 655 728 799)
3(798 796 726)
3(118 46 48)
4(45 120 47 119)
2(45 189)
3(118 190 191)
3(260 117 190)
4(263 119 189 191)
4(189 261 259 262)
5(260 334 333 331 262)
4(260 263 264 261)
4(405 332 261 334)
3(403 332 476)
2(475 404)
4(619 475 618 548)
4(547 689 617 690)
4(547 620 690 548)
6(17 618 16 617 688 690)
5(619 17 691 689 618)
5(49 689 18 16 690)
5(50 17 81 16 48)
4(82 49 113 48)
5(81 51 114 50 83)
5(184 114 81 80 112)
4(113 83 82 115)
5(113 185 255 112 183)
3(186 184 115)
3(255 257 186)
3(326 328 257)
2(400 327)
2(399 397)
3(400 470 398)
2(468 470)
4(541 399 469 471)
2(539 541)
5(612 542 470 540 611)
3(610 541 682)
4(683 541 613 682)
5(683 681 753 612 611)
4(612 754 684 682)
5(19 683 753 18 755)
4(90 754 89 20)
4(88 90 159 19)
5(19 161 160 91 89)
4(159 90 231 230)
3(232 90 162)
3(302 160 232)
4(303 161 233 231)
4(231 303 301 373)
4(232 374 302 304)
2(444 302)
5(443 445 514 373 515)
2(585 444)
5(656 515 514 584 513)
3(656 516 587)
3(655 586 585)
2(16 587)
3(658 54 55)
3(15 657 655)
3(17 53 15)
3(92 55 94)
3(234 164 92)
4(94 163 235 165)
3(233 163 305)
4(305 374 233 376)
4(304 306 234 377)
5(374 446 447 445 376)
2(375 304)
4(516 444 515 375)
3(375 518 516)
5(586 517 445 446 515)
4(517 657 586 588)
3(658 656 587)
3(657 659 729)
2(656 727)
3(658 730 799)
3(797 800 727)
3(800 729 727)
3(801 798 799)
3(120 49 47)
2(48 50)
3(121 118 48)
4(120 122 192 50)
2(190 119)
3(190 193 262)
3(336 262 265)
3(335 261 333)
4(336 334 406 405)
3(477 333 335)
4(477 335 407 408)
4(548 405 406 478)
1(477)
4(477 549 547 619)
3(548 550 479)
3(619 621 550)
3(690 692 621)
5(18 693 691 20 19)
4(17 692 19 50)
6(50 20 51 18 52 692)
5(49 19 82 51 18)
5(84 82 52 19 50)
5(116 84 114 82 115)
5(187 185 114 116 83)
4(259 115 188 186)
4(258 185 256 187)
3(329 256 327)
2(186 330)
3(401 257 330)
4(401 399 328 472)
2(472 470)
2(541 543)
3(612 614 684)
3(543 685 613)
4(683 685 755 613)
4(684 686 614 615)
4(754 756 684 21)
3(757 755 686)
3(19 92 21)
2(755 20)
3(92 90 163)
4(91 22 20 93)
3(163 233 161)
4(162 304 234 232)
4(375 233 303 305)
3(445 303 375)
4(446 304 376 374)
4(374 516 444 446)
4(447 517 375 445)
4(445 587 517 586)
4(446 588 516 518)
5(658 516 588 657 586)
4(18 587 17 659)
4(658 56 55 19)
3(93 18 17)
3(18 95 94)
3(164 56 93)
1(164)
2(164 306)
2(306 166)
4(305 307 236 235)
3(306 237 378)
2(305 448)
2(519 375)
3(378 519 377)
4(590 519 517 446)
5(448 518 449 447 520)
4(518 587 516 589)
2(517 660)
3(587 659 660)
4(732 658 731 588)
2(803 659)
2(729 801)
3(800 802 730)
2(49 121)
3(121 123 124)
2(121 193)
4(263 194 265 192)
4(193 195 124 266)
4(264 193 337 266)
2(265 194)
4(337 335 264 408)
3(336 267 265)
3(408 339 409)
4(480 406 409 408)
4(338 336 406 407)
3(481 407 479)
3(549 480 551)
4(549 622 551 620)
4(550 623 552 479)
4(620 693 622 691)
4(694 550 621 623)
5(621 21 694 692 20)
6(53 21 19 693 52 692)
5(85 51 53 19 20)
4(51 83 117 85)
5(52 86 118 84 117)
4(117 188 83 115)
5(116 118 84 189 85)
4(189 187 116 260)
3(330 187 260)
5(401 259 331 258 329)
3(330 403 332)
5(330 472 400 402 329)
3(401 403 474)
5(473 401 543 400 471)
3(472 545 474)
4(544 472 542 614)
2(543 616)
2(685 616)
4(687 685 757 756)
4(22 686 756 758)
3(92 757 23)
3(94 92 163)
4(91 164 162 93)
3(165 163 234)
3(233 164 235)
2(305 234)
3(306 304 235)
3(376 307 305)
3(375 377 306)
3(446 377 448)
1(517)
4(587 589 517 659)
3(588 590 519)
4(658 660 19 588)
3(659 661 590)
4(57 659 18 20)
1(19)
3(19 96 58)
2(56 166)
4(97 57 166 58)
4(95 236 167 96)
5(97 237 238 168 166)
3(307 167 308)
4(238 378 379 237)
4(307 448 449 308)
4(308 449 380 309)
4(450 519 378 379)
2(519 590)
4(518 661 591 520)
4(521 592 590 661)
4(660 590 592 591)
5(732 661 588 662 589)
4(660 593 592 663)
3(733 660 659)
4(732 734 803 663)
2(803 801)
4(733 802 731 804)
3(803 734 805)
1(123)
4(53 122 51 124)
4(122 195 194 123)
3(126 195 53)
4(196 125 194 124)
4(195 267 268 197)
4(337 196 339 268)
3(411 267 338)
3(410 407 338)
1(409)
3(480 482 552)
4(551 624 481 553)
4(551 624 622 695)
4(622 695 693 22)
4(694 23 623 696)
4(693 22 20 54)
4(21 23 55 694)
3(20 54 52)
4(87 53 21 55)
3(87 85 118)
5(117 190 85 119 86)
4(188 190 261 117)
3(189 191 118)
4(262 189 332 260)
4(259 332 188 261)
4(333 331 261 260)
4(331 404 475 402)
4(546 402 473 475)
4(547 545 474 476)
3(617 473 546)
4(544 688 617 615)
4(618 545 616 547)
3(687 616 689)
3(686 688 759)
2(757 759)
4(760 689 687 758)
2(760 23)
3(22 95 24)
2(93 166)
3(23 96 25)
4(96 165 167 94)
4(164 237 166 236)
2(165 307)
4(236 378 306 308)
4(377 379 307 450)
4(447 449 378 376)
2(447 520)
3(521 377 450)
4(519 592 448 521)
2(520 589)
4(591 589 660 661)
4(21 660 662 590)
3(59 661 22)
2(57 96)
3(60 21 97)
4(96 98 167 59)
3(167 98 169)
4(239 167 308 309)
3(238 240 169)
3(238 379 310)
4(379 310 381 450)
3(449 451 380)
4(521 381 452 450)
3(451 591 522)
2(521 523)
3(592 453 522)
5(593 591 523 661 662)
4(592 594 662 663)
4(733 664 662 593)
4(594 663 734 665)
4(733 735 664 804)
3(734 806 736)
1(804)
1(53)
4(123 54 52 125)
4(53 127 126 55)
4(198 54 125 128)
3(198 196 269)
3(199 126 197)
3(340 196 267)
2(268 412)
2(339 483)
4(483 481 553 554)
4(484 411 482 412)
3(552 482 554)
2(482 553)
4(625 623 552 696)
3(626 624 697)
4(697 695 624 24)
4(22 695 24 56)
4(88 22 56 54)
4(54 88 86 120)
4(89 87 55 57)
3(121 87 119)
3(118 120 191)
5(190 121 192 262 119)
4(192 261 263 191)
3(333 193 262)
4(332 263 404 334)
4(264 404 335 333)
4(403 334 405 333)
4(404 475 335 406)
4(476 403 474 405)
3(477 475 546)
4(546 477 617 548)
1(547)
2(617 619)
3(618 691 689)
4(688 690 619 759)
3(762 689 760)
4(690 24 759 761)
2(95 761)
4(166 97 95 26)
4(237 97 168 166)
3(165 238 167)
5(239 237 309 168 308)
3(307 238 379)
4(238 379 310 239)
4(309 378 380 308)
3(379 451 381)
2(378 449)
3(521 380 452)
4(449 522 451 520)
3(522 591 520)
3(590 592 663)
4(591 593 662 664)
2(661 663)
2(21 23)
1(22)
3(100 59 61)
3(97 99 168)
3(171 98 100)
3(170 168 239)
4(239 241 310 170)
3(380 240 309)
4(241 381 312 382)
3(451 311 380)
3(311 452 383)
3(454 451 382)
3(452 455 453)
4(523 454 525 524)
2(594 453)
4(595 664 593 524)
3(594 596 667)
3(664 736 666)
1(665)
4(737 806 735 665)
3(735 807 736)
2(808 806)
2(54 56)
3(127 58 55)
4(57 54 56 128)
3(126 129 127)
2(128 200)
2(198 200)
3(197 341 270)
2(271 269)
3(412 269 342)
5(340 484 341 413 483)
3(414 412 485)
4(483 412 555 485)
3(484 626 556)
3(625 555 627)
4(626 697 557 628)
4(696 698 627 625)
4(24 628 697 699)
4(698 23 25 696)
4(699 56 24 26)
4(57 55 25 23)
5(56 26 89 88 58)
4(88 90 58 57)
4(121 89 123 91)
3(90 120 191)
4(192 123 193 194)
4(122 262 191 193)
5(263 265 122 192 194)
3(265 334 336)
4(407 336 405 334)
3(407 478 405)
4(408 406 335 478)
3(549 476 547)
3(406 549 407)
4(477 550 620 478)
3(549 691 621)
4(692 619 762 620)
3(760 762 25)
5(690 763 691 27 761)
2(96 27)
4(762 28 98 26)
5(96 169 98 167 168)
4(27 169 99 97)
5(240 169 238 167 97)
5(98 170 97 240 168)
5(238 310 240 311 309)
4(241 168 169 239)
4(381 239 309 382)
4(310 452 382 380)
4(522 381 453 451)
4(452 592 523 521)
4(522 595 593 524)
3(663 523 594)
2(593 666)
2(665 663)
4(664 26 24 666)
2(61 665)
2(24 60)
3(63 25 100)
4(60 99 62 101)
3(102 100 171)
3(169 171 240)
4(99 172 170 101)
4(242 311 240 313)
2(172 241)
4(241 243 314 312)
3(311 384 313)
3(382 385 455)
4(456 454 526 383)
2(453 596)
4(596 456 455 527)
5(526 595 597 525 667)
4(738 668 595 596)
4(667 809 737 668)
2(736 738)
3(809 807 810)
3(739 808 738)
2(130 127)
2(56 59)
3(57 131 202)
4(271 201 199 129)
3(200 202 272)
4(343 200 270 272)
2(341 343)
4(271 415 342 344)
2(413 415)
3(486 484 413)
3(487 485 416)
2(555 557)
4(558 627 556 629)
4(698 700 629 627)
4(27 25 698 700)
3(28 699 26)
4(57 27 25 59)
4(89 91 57 59)
3(58 60 26)
3(90 92 58)
3(124 90 122)
3(195 193 122)
3(264 266 193)
4(195 337 265 267)
3(335 337 264)
4(408 266 336 338)
4(337 479 407 409)
3(408 550 480)
2(479 551)
3(551 549 479)
5(623 550 552 621 480)
2(551 620)
3(623 692 694)
3(693 691 622)
3(692 765 694)
2(764 762)
2(27 29)
4(101 28 100 764)
3(100 98 170)
4(30 763 765 29)
4(171 169 99 241)
5(242 240 170 171 311)
4(382 312 239 241)
4(242 311 383 382)
5(311 381 312 310 383)
4(453 313 312 382)
3(452 383 454)
4(384 524 455 453)
2(523 454)
1(595)
3(596 523 525)
2(665 594)
4(27 25 667 665)
3(26 62 64)
1(62)
1(25)
4(172 103 101 174)
4(173 242 102 171)
4(172 245 243 174)
2(313 173)
4(244 384 313 315)
3(385 312 314)
4(384 456 383 386)
4(457 385 315 387)
5(457 526 455 385 527)
4(456 458 528 386)
4(528 597 456 526)
4(596 527 668 598)
2(597 669)
4(667 669 597 738)
4(670 739 668 598)
3(809 669 740)
4(739 812 811 741)
2(808 811)
3(58 60 131)
3(59 61 132)
3(132 130 59)
4(203 131 133 60)
3(130 203 201)
3(271 273 201)
4(272 203 275 274)
2(344 273)
3(343 274 345)
4(417 415 346 344)
4(343 416 345 414)
4(417 415 486 487)
4(486 558 488 416)
4(559 557 487 629)
4(628 630 557 558)
3(629 702 559)
3(699 701 628)
2(700 702)
3(29 27 60)
5(28 92 61 59 93)
4(124 60 91 93)
4(125 123 195 92)
2(124 126)
4(124 266 194 196)
2(195 267)
4(268 266 339 196)
2(337 409)
3(408 481 338)
3(481 339 482)
3(410 552 409)
4(551 553 624 481)
3(695 551 622)
2(693 622)
4(693 764 766 30)
4(764 102 101 765)
5(172 99 101 171 29)
5(29 172 30 100 173)
5(170 243 241 242 100)
4(100 244 101 243)
5(241 314 312 243 171)
5(315 171 172 314 242)
3(383 314 385)
4(242 386 243 313)
3(454 385 456)
4(386 384 313 457)
3(454 526 527)
2(596 455)
4(595 597 667 526)
4(669 596 598 667)
4(26 597 596 668)
2(29 667)
2(26 28)
4(29 65 27 67)
2(103 28)
3(102 65 104)
4(105 103 174 66)
4(104 102 175 173)
4(174 105 245 176)
3(314 245 316)
4(173 246 244 175)
3(315 244 317)
3(386 316 314)
1(386)
3(388 457 459)
4(527 457 529 599)
3(600 528 459)
3(670 528 600)
4(669 671 599 741)
3(740 670 742)
3(812 740 810)
3(813 811 740)
2(60 62)
3(132 134 204)
4(132 273 204 202)
5(276 203 275 205 133)
3(347 204 273)
4(345 348 347 418)
2(275 346)
5(345 489 416 488 418)
3(419 417 346)
4(559 487 489 417)
5(417 561 490 488 560)
5(558 560 488 631 630)
4(559 561 632 489)
3(559 703 632)
4(703 701 30 630)
4(31 29 703 702)
3(28 30 62)
3(62 60 94)
3(61 63 29)
2(60 92)
1(61)
4(125 127 198 197)
3(126 268 269)
4(267 340 197 339)
2(340 197)
4(411 267 410 268)
4(341 411 268 269)
4(482 340 412 339)
4(553 411 410 483)
4(624 482 554 552)
2(553 555)
4(553 695 552 625)
3(624 626 696)
4(623 766 696 624)
4(695 697 767 625)
3(695 31 765)
3(696 32 768)
3(32 766 102)
4(31 33 767 768)
4(103 30 31 173)
2(102 104)
4(174 244 102 101)
3(175 173 245)
4(245 172 315 173)
4(316 243 244 386)
5(387 314 385 315 457)
4(528 386 385 456)
3(384 527 457)
3(598 456 455)
2(457 599)
4(670 528 598 529)
3(597 527 599)
4(597 670 29 30)
3(669 600 599)
5(30 28 669 68 668)
2(104 67)
4(28 107 66 68)
4(104 177 175 106)
2(105 107)
3(246 248 175)
3(245 247 176)
2(246 319)
2(176 320)
1(316)
3(388 319 389)
3(458 318 389)
3(461 388 318)
3(458 460 529)
2(460 600)
4(671 529 530 599)
2(671 602)
4(670 672 601 600)
3(673 743 671)
1(741)
4(814 672 813 744)
3(812 814 743)
3(743 815 813)
3(63 61 134)
4(205 62 133 135)
2(134 64)
4(134 276 206 204)
4(208 205 136 276)
4(276 208 278 279)
5(204 277 205 207 206)
3(276 348 278)
4(349 207 277 350)
3(277 346 419)
3(418 348 420)
5(490 421 492 349 419)
3(489 420 491)
4(563 561 492 490)
4(562 489 560 491)
2(561 634)
3(633 631 560)
3(634 632 704)
4(704 702 631 30)
4(703 744 705 633)
3(30 744 63)
3(31 95 62)
3(822 127 63)
3(128 126 95)
3(127 823 129)
3(126 270 199)
3(129 198 200)
3(271 198 341)
4(342 340 270 412)
4(341 343 271 413)
4(413 411 341 483)
3(412 414 342)
3(482 484 412)
2(483 555)
4(554 556 485 484)
2(625 627)
2(696 698)
2(767 32)
3(32 34 104)
4(103 175 105 33)
4(246 104 174 176)
4(244 316 246 174)
4(317 175 247 245)
4(387 245 315 317)
4(388 246 316 318)
4(388 316 386 458)
4(317 459 387 389)
2(387 529)
4(530 388 460 529)
3(599 459 458)
3(530 670 671)
3(30 601 600)
4(29 671 31 669)
4(32 672 30 68)
4(67 31 29 69)
4(32 107 68 70)
4(67 108 106 69)
4(178 70 107 109)
3(178 105 249)
3(177 108 179)
2(250 177)
4(247 391 318 320)
2(248 319)
0()
3(319 392 321)
4(461 459 531 530)
4(462 460 532 389)
3(460 602 532)
3(533 461 531)
5(673 603 601 674 531)
3(672 602 745)
1(743)
2(816 814)
2(64 62)
5(63 137 136 65 135)
2(0 64)
2(64 206)
4(206 207 209 210)
3(207 280 350)
3(420 278 350)
5(351 349 278 280 279)
3(420 351 422)
4(491 422 493 420)
3(491 564 493)
4(635 562 633 564)
2(704 635)
2(744 636)
5(745 31 704 706 783)
4(744 707 746 783)
3(822 744 745)
3(95 784 783)
3(822 746 823)
4(785 128 784 824)
4(199 824 128 130)
2(129 202)
2(199 271)
3(202 271 273)
5(270 201 342 272 200)
2(271 344)
3(344 414 342)
4(485 343 415 413)
4(556 414 555 486)
2(485 557)
4(485 627 557 555)
5(556 628 558 629 486)
3(556 698 626)
2(699 557)
4(627 699 697 769)
4(700 770 628 698)
3(698 34 770)
4(33 35 769 105)
4(105 36 770 34)
4(104 35 106 34)
4(699 35 771 769)
4(105 107 177 176)
3(175 247 106)
3(106 178 247)
5(246 248 177 318 176)
4(317 248 319 247)
3(388 390 319)
3(461 459 390)
4(459 601 600 531)
3(530 532 461)
4(530 672 671 602)
4(603 601 672 532)
4(601 673 31 602)
3(672 674 32)
4(31 33 673 69)
4(34 70 674 32)
4(108 71 33 69)
3(108 179 110)
3(178 180 109)
3(179 181 251)
3(249 321 251)
4(252 250 322 180)
3(391 250 322)
4(321 392 323 251)
4(391 393 462 322)
3(461 392 463)
2(462 533)
4(534 603 532 463)
3(602 604 533)
4(603 676 675 605)
2(745 602)
2(746 604)
3(673 746 674)
4(747 816 745 675)
3(746 815 817)
1(816)
1(65)
2(138 64)
5(66 137 209 139 67)
3(140 209 138)
3(139 208 138)
2(208 211)
1(210)
2(350 279)
2(351 282)
3(281 421 350)
2(422 353)
3(352 492 421)
2(493 424)
4(492 494 423 563)
4(566 493 564 495)
4(565 563 634 494)
4(635 566 564 637)
4(705 565 634 636)
4(637 708 706 635)
2(745 708)
4(823 786 825 746)
5(786 745 784 747 785)
3(787 746 785)
3(824 203 132)
3(201 203 130)
4(129 825 823 131)
4(785 826 132 824)
3(274 201 345)
4(343 416 345 272)
4(273 417 344 346)
3(414 487 416)
4(344 488 415 417)
3(415 559 488)
3(559 557 630)
3(701 557 630)
3(699 772 701)
4(700 702 629 773)
4(700 38 771 773)
3(35 108 37)
4(109 771 36 38)
3(770 37 772)
3(179 106 108)
5(177 249 250 248 179)
5(318 249 247 178 319)
4(178 321 248 250)
4(320 389 318 248)
3(319 392 321)
3(391 389 460)
3(390 463 392)
3(460 462 531)
4(534 461 463 532)
4(531 602 462 533)
3(604 602 533)
4(673 604 33 675)
3(33 35 71)
3(70 72 34)
3(71 73 111)
1(109)
3(72 112 181)
2(180 111)
2(252 112)
3(251 253 182)
4(322 253 324 394)
3(392 465 464)
3(323 465 324)
2(393 534)
5(393 466 394 395 535)
5(533 535 606 464 605)
4(534 536 466 465)
3(604 534 677)
2(607 534)
4(604 748 678 677)
2(676 605)
2(747 676)
4(746 819 748 818)
2(819 747)
1(66)
3(138 68 1)
3(141 2 66)
1(138)
3(212 139 142)
3(140 282 213)
4(212 353 281 283)
4(282 354 352 424)
4(353 423 495 425)
3(494 496 424)
3(565 567 494)
3(566 568 639)
3(636 638 565)
3(637 639 710)
3(707 709 636)
3(710 708 748)
4(747 788 709 749)
3(825 827 133)
3(786 788 827)
2(748 746)
4(204 825 133 131)
4(132 134 205 826)
5(202 204 275 131 274)
4(132 205 276 203)
3(273 346 203)
2(203 347)
4(418 345 347 274)
3(345 489 416)
3(346 419 348)
3(560 416 487)
3(417 560 419)
5(559 489 490 488 561)
4(560 558 631 487)
2(629 558)
3(632 559 561)
2(632 701)
4(701 703 774 772)
4(39 772 37 774)
2(37 110)
3(36 180 107)
4(251 107 250 178)
3(108 181 110)
5(179 322 178 251 249)
4(179 252 181 250)
4(393 320 249 322)
5(250 323 252 393 321)
3(464 320 391)
5(394 321 322 323 464)
3(535 391 462)
3(462 606 535)
2(532 603)
4(674 676 603 605)
3(604 606 677)
4(604 37 675 677)
3(74 34 36)
3(75 675 35)
3(114 35 73)
3(36 674 676)
3(72 113 74)
4(111 184 182 113)
3(253 184 255)
3(183 252 323)
3(324 326 255)
5(254 395 323 325 394)
3(324 396 326)
3(324 466 465)
5(397 466 467 468 325)
4(535 396 465 395)
3(535 467 537)
3(608 606 537)
2(679 676)
5(608 751 749 678 680)
2(819 679)
0()
4(749 820 747 818)
2(819 821)
3(523 309 380)
1(522)
2(238 593)
2(522 735)
3(594 71 735)
3(664 0 593)
4(0 1 664 142)
3(71 142 735)
4(143 355 71 0)
2(355 426)
2(142 213)
3(284 497 213)
3(97 168 167)
3(309 168 96)
4(451 167 380 239)
1(309)
4(309 452 451 381)
2(451 595)
3(380 595 524)
4(665 523 594 452)
2(595 664)
4(595 736 666 737)
2(665 1)
4(71 2 143 736)
4(215 2 143 73)
4(142 214 1 72)
4(284 215 143 285)
2(214 426)
3(285 497 498)
3(356 568 426)
3(570 568 639)
3(497 569 498)
2(65 97)
4(673 32 1 33)
2(65 0)
4(96 64 169 240)
5(66 32 64 169 33)
4(310 96 167 240)
4(170 97 65 66)
3(168 311 97)
2(168 382)
2(240 382)
1(380)
4(310 383 453 311)
3(383 382 596)
1(452)
4(666 525 738 453)
3(665 596 737)
4(737 667 3 596)
4(2 738 665 666)
3(73 738 4)
4(737 1 72 73)
5(144 3 72 2 74)
3(145 73 215)
4(214 144 72 286)
3(285 216 215)
4(286 356 357 214)
3(285 287 427)
5(428 570 357 498 499)
3(427 356 568)
4(640 427 569 499)
4(570 38 710 641)
5(0 640 710 743 77)
2(569 710)
4(38 743 640 639)
4(38 76 77 710)
3(147 743 148)
3(602 460 532)
3(673 603 531)
3(674 0 602)
3(675 673 603)
2(65 0)
1(0)
4(65 98 34 169)
3(2 98 66)
5(99 66 67 34 170)
3(241 169 98)
3(170 312 242)
3(242 383 241)
5(525 312 453 382 454)
4(455 383 525 526)
4(383 667 596 454)
2(526 667)
4(739 738 525 597)
4(5 667 4 668)
2(3 739)
2(73 75)
1(74)
2(144 146)
2(286 217)
4(218 216 288 146)
2(357 288)
3(217 358 287)
4(428 288 429 359)
2(358 427)
3(429 1 499)
4(571 570 427 641)
4(571 0 500 642)
2(499 640)
3(38 39 1)
3(0 78 77)
4(148 38 39 743)
3(218 77 76)
5(147 149 148 360 219)
2(218 76)
3(220 360 290)
2(218 289)
1(460)
3(463 462 391)
3(461 531 389)
2(533 390)
4(533 532 460 605)
4(604 461 603 531)
3(532 674 602)
3(676 532 605)
3(604 461 677)
3(674 676 2)
4(34 675 3 35)
4(675 36 604 4)
3(2 67 68)
3(36 2 68)
4(98 100 35 171)
2(98 242)
3(314 67 313)
5(312 384 99 241 313)
2(242 171)
3(456 242 455)
3(384 454 527)
4(526 528 456 455)
4(527 597 598 454)
3(526 669 599)
1(739)
2(669 5)
3(739 76 740)
2(76 741)
3(6 146 5)
4(147 217 76 145)
3(77 146 219)
2(217 219)
2(359 219)
3(289 358 430)
4(360 429 501 359)
4(571 430 358 500)
3(1 501 429)
4(1 2 572 643)
3(3 572 642)
3(642 78 40)
2(2 149)
3(149 39 2)
3(149 41 80)
4(79 218 78 40)
1(219)
3(220 218 150)
3(221 289 219)
3(361 221 292)
2(289 361)
3(291 431 290)
3(362 361 432)
3(391 392 319)
1(318)
3(464 390 318)
3(535 390 534)
1(391)
4(606 462 461 534)
2(463 533)
3(533 5 678)
1(605)
3(37 676 69)
4(101 676 3 69)
4(36 70 4 102)
3(5 4 70)
2(35 3)
3(67 172 243)
4(173 36 102 172)
3(100 173 101)
4(100 315 244 314)
4(385 243 171 386)
3(456 314 386)
3(314 387 385)
5(384 457 527 385 528)
2(456 458)
3(529 527 456)
1(598)
3(670 740 598)
3(600 741 669)
3(742 6 670)
3(77 742 78)
3(147 7 148)
4(78 219 220 77)
5(218 148 289 290 147)
4(149 290 148 291)
3(360 220 219)
3(360 291 431)
4(290 430 431 361)
4(501 360 432 361)
5(430 502 500 572 431)
4(501 432 573 503)
3(644 502 572)
4(501 643 642 573)
3(573 4 574)
4(41 645 644 5)
2(643 41)
4(79 4 42 3)
4(221 80 152 81)
3(79 151 81)
4(151 291 220 222)
2(221 292)
3(292 294 223)
4(291 293 362 222)
3(433 294 362)
3(363 431 292)
3(502 363 364)
1(431)
3(433 434 503)
3(504 502 573)
3(248 177 249)
4(249 105 176 178)
2(248 320)
3(321 176 247)
3(393 247 321)
1(318)
3(465 320 394)
2(393 536)
3(463 536 607)
4(535 537 608 465)
2(535 679)
3(536 609 538)
2(606 679)
4(607 680 6 678)
3(606 38 37)
3(679 38 7)
4(5 39 6 7)
3(37 71 69)
5(103 39 70 104 102)
4(101 71 173 69)
4(173 104 71 175)
5(174 172 103 101 102)
3(173 246 244)
3(243 174 245)
2(244 316)
2(316 243)
5(387 315 317 388 245)
3(316 458 386)
5(459 529 457 387 530)
4(458 460 531 388)
4(600 528 458 530)
2(529 458)
4(529 671 601 670)
3(600 602 672)
3(600 742 672)
4(742 79 78 743)
4(8 150 9 80)
4(671 7 741 8)
2(8 672)
4(149 148 8 7)
4(78 220 150 221)
3(149 292 150)
2(361 220)
2(432 292)
3(362 502 431)
2(503 363)
4(502 504 433 574)
4(434 574 503 575)
3(504 644 503)
3(645 505 504)
4(5 576 647 645)
3(575 4 646)
4(42 646 4 6)
4(43 151 82 80)
2(81 83)
3(43 41 5)
3(44 81 42)
3(151 153 223)
4(152 83 224 154)
2(293 152)
4(294 225 153 154)
4(224 363 295 293)
3(294 296 365)
3(366 364 295)
2(365 433)
1(434)
2(502 435)
2(503 505)
3(505 644 506)
1(503)
2(575 574)
1(575)
3(105 35 106)
3(108 107 34)
4(34 177 106 178)
5(178 34 180 105 179)
5(249 106 179 177 105)
5(322 178 177 176 250)
1(249)
4(394 322 248 320)
3(321 323 249)
5(321 466 393 395 396)
2(394 323)
3(397 466 394)
4(394 537 396 467)
4(538 536 466 467)
4(468 537 539 466)
4(610 537 608 539)
3(608 681 680)
2(538 682)
4(8 679 609 7)
3(9 609 682)
4(40 38 680 6)
3(680 41 40)
3(38 72 71)
4(73 8 7 72)
4(39 105 73 40)
4(176 103 105 71)
4(72 177 106 104)
3(103 247 246)
3(104 248 247)
3(174 318 175)
5(318 176 248 319 175)
2(316 318)
5(319 246 389 247 317)
2(316 459)
3(460 318 390)
4(459 461 389 531)
5(602 459 532 460 603)
4(673 531 601 603)
2(531 602)
5(673 671 743 601 744)
3(672 674 602)
3(745 672 9)
2(79 744)
2(80 745)
3(79 10 150)
5(151 149 79 221 80)
4(152 150 81 222)
2(292 151)
5(363 222 362 221 293)
1(292)
3(292 434 433)
2(294 434)
4(363 505 504 364)
3(505 365 506)
4(575 435 434 576)
3(576 436 435)
5(647 505 646 577 506)
5(7 576 646 648 577)
4(43 7 45 6)
3(5 7 44)
5(44 648 647 6 8)
4(84 44 46 83)
5(153 45 154 82 84)
5(45 85 154 83 155)
6(225 84 83 153 224 155)
3(225 154 84)
4(296 154 224 155)
5(366 226 295 225 297)
5(436 367 296 365 297)
3(366 505 437)
3(438 436 506)
3(436 574 504)
4(437 575 507 574)
5(576 438 577 506 508)
4(575 646 577 507)
4(576 644 506 645)
2(715 576)
5(715 717 786 647 718)
2(646 716)
3(718 716 787)
2(789 786)
)


// ************************************************************************* //
