/*--------------------------------*- C++ -*----------------------------------*\
  =========                 |
  \\      /  F ield         | OpenFOAM: The Open Source CFD Toolbox
   \\    /   O peration     | Website:  https://openfoam.org
    \\  /    A nd           | Version:  8
     \\/     M anipulation  |
\*---------------------------------------------------------------------------*/
FoamFile
{
    version     2.0;
    format      ascii;
    class       vectorField;
    location    "0/lagrangian/kinematicCloud";
    object      f;
}
// * * * * * * * * * * * * * * * * * * * * * * * * * * * * * * * * * * * * * //


1722
(
(-2.03995e-06 0.00109167 1.9424e-05)
(-1.6337e-05 0.00115323 2.58355e-05)
(-4.5396e-05 0.00100982 -4.08894e-05)
(-4.17326e-05 0.00100867 -2.05907e-05)
(-8.34018e-07 0.000957119 -5.1313e-05)
(-5.72857e-05 0.00100008 6.98471e-05)
(-7.59074e-05 0.000989397 -4.92879e-05)
(-2.46171e-05 0.00080518 -0.000113748)
(5.72747e-05 0.00108238 -3.30959e-05)
(8.37447e-06 0.00105563 -7.21287e-05)
(0.000340779 0.00116096 1.38234e-05)
(9.48623e-05 0.00110027 6.44167e-05)
(5.6587e-05 0.000983157 -2.02917e-05)
(-3.45598e-05 0.00102938 -4.86328e-05)
(-3.50183e-05 0.0010244 -1.52605e-05)
(1.02667e-05 0.000962959 6.89246e-05)
(3.80974e-05 0.000951934 6.48718e-05)
(2.57588e-05 0.00108745 3.16853e-05)
(5.93495e-05 0.00110326 -0.000112738)
(0.000205827 0.000957001 -5.02709e-05)
(1.48982e-05 0.00112862 -6.44008e-05)
(4.29548e-05 0.00112737 0.000138558)
(6.45939e-05 0.0011522 0.000191482)
(6.75197e-05 0.00119462 -8.33836e-07)
(9.52682e-05 0.00101912 -2.95942e-05)
(8.05218e-05 0.000868699 5.79601e-05)
(5.39179e-05 0.000772812 -8.06842e-05)
(0.00016965 0.000884046 -4.98784e-06)
(0.000140062 0.000989808 3.24428e-05)
(-5.62789e-05 0.000993781 6.11058e-05)
(2.38671e-05 0.00115376 3.05461e-05)
(-1.11761e-05 0.00100543 -8.28001e-05)
(-0.000368263 0.0010225 -5.78567e-05)
(7.27976e-05 0.000735615 -0.00013297)
(1.35369e-06 0.00115708 0.00013768)
(-0.000674255 0.00146635 -1.21134e-05)
(0.000171484 0.000943335 -0.000126262)
(2.47764e-05 0.00114073 0.000200331)
(5.59343e-05 0.00114213 0.000255783)
(0.000212126 0.0011283 -3.77787e-05)
(-0.0001117 0.00101931 -0.000130084)
(-0.000192175 0.0010565 9.43889e-05)
(-0.000143412 0.00121076 6.80049e-05)
(-0.000164363 0.00120246 -0.000113243)
(7.33615e-05 0.0012063 5.15432e-05)
(-4.56846e-05 0.00105134 -0.000165934)
(0.000126789 0.00104993 1.30206e-05)
(-1.23359e-05 0.00119973 -3.5636e-05)
(-4.46025e-05 0.00101763 1.04117e-05)
(-0.000165837 0.000934743 -2.23457e-05)
(-3.63513e-05 0.00107871 -0.000101345)
(1.70154e-05 0.0011024 8.36771e-05)
(-0.000213564 0.00111453 5.11963e-05)
(5.93407e-05 0.000990113 4.15974e-05)
(-4.87271e-05 0.00103315 2.64458e-06)
(5.46058e-05 0.00108898 8.79681e-05)
(-0.000188997 0.000949207 4.68183e-05)
(-7.71033e-05 0.000985653 -0.000107065)
(7.78746e-05 0.00113185 0.000244221)
(8.67666e-05 0.0011906 5.7922e-05)
(0.000164416 0.0012127 -0.00010208)
(0.000200319 0.00107651 0.000270844)
(-0.000118021 0.000881172 0.0001383)
(-2.68707e-05 0.000699777 -6.48229e-05)
(-0.00109246 0.0012794 -3.18629e-05)
(-0.00115902 0.00152507 0.000152247)
(-0.0005636 0.00116723 7.68948e-05)
(-0.000210971 0.00162654 9.20692e-05)
(-0.000180711 0.000351288 -4.39839e-05)
(0.000259061 0.00109473 -0.000106259)
(0.00115463 0.0014966 0.000204353)
(0.00144289 0.000573858 9.4943e-05)
(-3.59693e-05 0.00118214 0.000304008)
(-5.90204e-05 0.00114646 0.00123205)
(-0.000847045 0.00136269 0.00090782)
(4.54883e-05 0.000883862 0.000951442)
(2.17524e-05 0.00126724 -2.3167e-05)
(0.00050737 0.00111471 5.74232e-05)
(2.99518e-05 0.000674364 -0.000120601)
(2.56541e-05 0.00102846 6.19218e-06)
(1.82168e-06 0.00104383 9.53749e-06)
(1.32812e-05 0.00100766 7.75073e-06)
(-4.69402e-05 0.00104656 1.68032e-05)
(-0.000215046 0.000954349 -0.000113491)
(-2.80047e-05 0.000968937 2.18055e-05)
(9.99413e-05 0.00100592 3.26557e-05)
(0.000143569 0.000802342 5.0582e-05)
(-8.52881e-05 0.00106262 1.05085e-05)
(4.86851e-05 0.00104131 7.47001e-05)
(-3.58458e-05 0.00111469 0.000131717)
(4.37952e-05 0.00118063 4.55196e-05)
(-2.77461e-05 0.00102624 9.59374e-05)
(4.97541e-05 0.00103882 8.95732e-05)
(-2.81617e-05 0.00095215 4.92651e-05)
(-1.90769e-05 0.000982517 1.50957e-05)
(-2.31956e-05 0.00103856 5.66258e-05)
(-4.24062e-05 0.000956661 5.09635e-05)
(-2.18208e-05 0.00112656 2.20223e-05)
(-4.8699e-05 0.00113055 -7.07843e-05)
(0.000147 0.00101758 -1.02453e-05)
(-0.00023067 0.00129662 7.76692e-06)
(0.000116287 0.0011531 -0.000115504)
(-4.59017e-05 0.00122513 6.41472e-05)
(-6.92473e-05 0.00113543 0.00016303)
(8.87848e-05 0.00106281 6.81088e-05)
(1.16444e-05 0.00112156 0.000193732)
(-2.4366e-05 0.00113829 3.54705e-05)
(-6.86616e-05 0.00111531 -7.59974e-05)
(8.85564e-05 0.00109202 -5.464e-05)
(-5.11262e-06 0.00119262 -1.28364e-05)
(0.000149308 0.00112187 -0.000104805)
(0.000157433 0.00110122 -0.000134912)
(0.000237082 0.000993692 -7.49155e-05)
(-2.48078e-06 0.00116289 -0.000164008)
(-8.61237e-06 0.000728001 0.00036381)
(0.000246171 0.000577837 6.6525e-05)
(0.000323158 0.00108745 4.93399e-05)
(0.000152675 0.00089428 6.73454e-05)
(0.000142106 0.000937192 0.000260575)
(-6.17632e-05 0.00117296 2.79928e-06)
(-0.000166046 0.000807087 2.5598e-05)
(1.12464e-05 0.00108219 -4.31196e-05)
(8.65956e-05 0.00135719 -0.000138617)
(7.63275e-05 0.00136431 -4.34565e-05)
(-1.57259e-05 0.000976098 -8.84436e-06)
(7.36863e-05 0.00112771 7.65831e-05)
(9.58582e-05 0.00110611 -9.00838e-05)
(2.10916e-06 0.00117846 9.08452e-07)
(0.000106596 0.00122842 -0.000240697)
(-4.68292e-05 0.00119774 -0.000134353)
(-0.00012707 0.00113133 0.000103079)
(-0.000240352 0.000966852 6.73165e-05)
(0.000390283 0.00120047 -5.39988e-05)
(-0.000192049 0.00140395 -3.70758e-05)
(-0.000171563 0.00103878 0.000165826)
(-0.000172095 0.00126532 0.000331251)
(-0.000166301 0.00117682 0.000200769)
(-0.000151113 0.000574942 0.000131071)
(0.000427022 0.000579986 2.41095e-05)
(0.000102948 0.000997336 -0.000178335)
(0.000202962 0.00100603 -9.74558e-05)
(-0.000238631 0.00130843 1.36532e-05)
(3.33414e-05 0.00107318 -1.07082e-05)
(-0.000412023 0.000771023 0.000364906)
(-1.10877e-05 0.00138137 -7.39368e-05)
(0.000459317 0.000791556 0.000145852)
(0.000409812 0.00157675 0.000135665)
(-0.00102952 0.000143079 0.000453564)
(-0.000155154 0.000603106 -0.000127758)
(0.000375238 0.000717287 0.000217355)
(0.000651642 0.000797763 -0.000195857)
(0.000157931 0.00093141 0.000268619)
(8.94098e-05 0.000581041 -0.000445926)
(1.54639e-05 0.00115194 1.4306e-05)
(-6.85282e-05 0.000950299 -2.5596e-05)
(-4.26226e-05 0.000930174 4.85498e-05)
(-8.51944e-06 0.000984603 4.34389e-05)
(-0.000102459 0.00126835 2.02245e-05)
(-7.82936e-05 0.00109966 1.4861e-05)
(0.0001397 0.000989811 -7.46577e-05)
(-0.000152702 0.00089921 0.000164719)
(-2.74646e-05 0.00108329 3.77182e-05)
(-7.04923e-06 0.000956678 -4.92867e-05)
(4.04317e-05 0.00102929 -8.89951e-05)
(-5.57251e-05 0.00104792 -2.50772e-05)
(-1.36965e-05 0.00108728 -6.86372e-05)
(4.68168e-05 0.00105469 1.3559e-05)
(2.4206e-06 0.00118761 -2.49943e-05)
(-4.29399e-05 0.00101941 3.86826e-05)
(3.67375e-05 0.00100615 -4.68422e-05)
(5.10493e-05 0.00119825 -2.15374e-05)
(-6.77639e-05 0.00108464 6.87572e-05)
(-2.61541e-05 0.00106743 8.63078e-05)
(4.36645e-07 0.00113848 1.15612e-05)
(3.69057e-05 0.00105628 -7.25048e-05)
(3.68237e-05 0.000936748 -0.000169486)
(-0.000120908 0.00104895 -0.000136866)
(-5.81285e-05 0.00112542 -1.94268e-05)
(0.000117505 0.00111621 1.26701e-05)
(2.23013e-05 0.00107516 2.94489e-05)
(6.98002e-05 0.00115762 -3.39433e-05)
(1.02986e-05 0.00119857 6.03741e-05)
(6.21321e-06 0.00127691 9.14902e-05)
(3.28405e-05 0.00117011 3.38336e-05)
(3.73046e-05 0.00105759 1.09931e-05)
(7.23836e-05 0.00116993 7.82759e-05)
(8.83231e-05 0.00108956 5.67585e-05)
(-0.000270981 0.00120524 -8.12852e-05)
(-0.000221515 0.00128831 4.46738e-06)
(-0.000151625 0.000910596 -5.97413e-05)
(-7.70922e-05 0.0011112 -6.94766e-05)
(-0.000332113 0.00132746 -0.000113115)
(-7.88827e-05 0.00105445 1.66594e-05)
(9.63886e-05 0.0010887 -0.000113801)
(3.20024e-05 0.00109155 -7.01892e-05)
(0.000282237 0.00128762 7.36922e-05)
(2.07759e-05 0.00101576 -1.43469e-05)
(7.76824e-05 0.00107753 -2.89958e-05)
(-0.000132652 0.000954592 0.000114411)
(8.06661e-05 0.000967496 2.80719e-05)
(8.16268e-05 0.00122018 7.69115e-07)
(7.38453e-05 0.000883003 6.23435e-05)
(-0.000137807 0.00085257 6.16482e-05)
(-0.000368302 0.00104886 -3.13699e-05)
(-0.000207005 0.00107627 1.24594e-05)
(-5.31614e-05 0.00135453 7.85297e-05)
(0.000135707 0.00123 -0.000491643)
(-0.000171044 0.0010357 -0.000140427)
(-0.000198794 0.00149806 -6.09059e-05)
(0.000483634 0.000796037 4.46651e-05)
(0.000785227 0.000639638 -5.48598e-05)
(0.000405226 0.000524342 -5.32646e-05)
(0.000332773 0.000799525 -5.94662e-05)
(0.000163936 0.00108787 3.49766e-05)
(-0.000133644 0.000369817 -7.37163e-05)
(0.000149025 0.000459021 2.37273e-05)
(-0.000310337 0.00166628 -0.000287099)
(0.000190454 0.00103669 0.000113205)
(0.00152156 0.000998926 0.00012553)
(0.00125943 0.00182421 -0.00114273)
(0.0002522 0.00233325 -0.000228624)
(0.00114453 0.00113517 -0.000246454)
(-0.000732581 0.000879058 -0.00010129)
(0.000204232 0.00106418 0.000177614)
(0.000197498 0.00136293 -2.77739e-05)
(0.000638634 0.0013963 5.0941e-05)
(-3.55702e-05 0.000886838 0.000258563)
(-3.56614e-05 0.000977802 -3.86592e-05)
(-1.11633e-05 0.00100053 -2.93504e-05)
(4.72205e-05 0.00088356 -5.82342e-05)
(7.16596e-05 0.00116907 1.91718e-05)
(0.000145722 0.000861634 -3.86864e-05)
(0.000259095 0.000445145 2.06175e-05)
(-2.98813e-05 0.00118922 -1.74019e-06)
(-0.000170675 0.00109083 -2.06247e-05)
(9.03165e-05 0.00101302 -0.00014586)
(-9.31281e-05 0.0010156 -2.73371e-05)
(3.44092e-05 0.000992322 0.000119836)
(-1.55067e-05 0.00102471 -1.9381e-05)
(-5.15284e-07 0.00106575 -2.97296e-05)
(-4.58247e-05 0.00106067 -8.20272e-05)
(3.03437e-05 0.00101761 0.000103534)
(4.42164e-05 0.00094951 0.000127982)
(1.10379e-05 0.00117189 2.09428e-05)
(3.67734e-05 0.001096 -6.01902e-06)
(-8.23081e-05 0.0012539 3.51473e-05)
(9.27274e-05 0.00107406 2.76177e-05)
(5.78069e-05 0.00101299 8.20014e-06)
(1.90042e-05 0.00103229 0.00012558)
(-0.000113106 0.00113877 -1.89363e-05)
(-0.000307408 0.00149255 0.000166847)
(4.10233e-05 0.00112967 0.000243652)
(-2.51646e-05 0.00106771 6.55852e-05)
(8.27342e-05 0.00115964 -7.6024e-05)
(-6.30215e-06 0.00106775 -2.11004e-05)
(7.54313e-05 0.00109646 -2.79288e-05)
(-0.000139087 0.00112672 5.9353e-05)
(-0.000100952 0.00110413 -0.000159346)
(-4.57303e-05 0.00105657 -0.00010147)
(0.000155751 0.000944656 0.00022827)
(-0.000143524 0.00116002 0.000224236)
(-7.12139e-05 0.00132803 9.57726e-05)
(0.00016892 0.00113995 -0.000323154)
(-0.000148144 0.000860471 -3.37581e-05)
(-5.39443e-05 0.0013368 -7.27072e-05)
(-0.000518309 0.000630441 -0.000133358)
(0.000247781 0.00107333 1.33819e-05)
(-0.000237987 0.000825773 -0.000212082)
(0.000107165 0.00102358 4.46121e-05)
(-0.0002478 0.00142026 -0.000324332)
(0.00021464 0.000842618 8.90402e-05)
(-0.000236658 0.00107425 1.16894e-05)
(0.000117992 0.000905564 -6.18258e-05)
(9.66654e-06 0.00109655 -1.07266e-05)
(-0.000126859 0.00100938 9.00016e-05)
(-0.000121622 0.00105223 -9.79962e-05)
(-4.05831e-05 0.0010578 6.2346e-05)
(0.000111142 0.00125052 0.000105447)
(2.68292e-05 0.00104816 0.000107588)
(-7.78125e-05 0.00144084 -4.41261e-05)
(-0.000205717 0.00126241 -1.04682e-05)
(0.00010426 0.00100553 -0.000212886)
(-0.000422323 0.000970422 4.05673e-05)
(-0.00048174 0.00126348 -0.000384358)
(0.000211629 0.0012057 4.59212e-05)
(-4.3205e-05 0.001009 -4.99452e-06)
(-1.41369e-05 0.00110223 -5.96429e-05)
(0.000349023 0.0008049 4.7768e-05)
(7.59199e-05 0.00124867 -2.09504e-05)
(0.000393035 0.00108945 -0.000227804)
(-0.000262394 0.00085082 -9.08116e-05)
(-0.000471786 0.00057395 -0.000158403)
(-0.000523844 0.00141417 -0.000169723)
(-0.000207145 0.000620651 0.000162425)
(-4.03685e-06 0.000958537 0.00041492)
(-0.000170055 0.000690725 0.000288151)
(0.000292689 -2.21681e-05 -0.000103829)
(0.000568189 0.000757621 0.000612944)
(9.27318e-05 0.000108398 -0.000242482)
(-0.00046542 0.00104817 2.70503e-05)
(0.000244552 0.000954707 0.000131626)
(0.000291011 0.00145726 4.44115e-05)
(8.86837e-05 0.00107812 0.00010466)
(3.92504e-05 0.00134003 -0.000119302)
(-1.26806e-05 0.00104559 -9.86834e-05)
(4.63296e-05 0.0010092 4.33762e-05)
(-4.3096e-05 0.00104209 1.343e-05)
(0.000236014 0.00126252 -5.75749e-05)
(-7.33896e-06 0.00119124 5.23695e-05)
(2.20728e-06 0.00105763 -5.47049e-05)
(0.000160871 0.00138945 0.000164218)
(7.26682e-06 0.00106665 -4.7573e-07)
(0.000160257 0.00115249 -7.02052e-05)
(-6.10203e-05 0.000983316 -0.000137598)
(-1.25394e-05 0.000957012 -3.57338e-05)
(6.0913e-05 0.00105272 2.94018e-05)
(-0.000344052 0.00139002 0.000112187)
(-0.000115886 0.00108821 5.23982e-05)
(5.86592e-06 0.00101836 0.000142468)
(-5.05611e-06 0.00104256 8.67938e-05)
(5.45964e-05 0.00112334 4.71447e-05)
(3.74521e-05 0.00111161 2.49858e-05)
(6.23502e-05 0.00105739 3.9218e-05)
(6.34561e-05 0.00104566 9.44012e-05)
(2.63433e-05 0.00109772 2.97453e-05)
(6.94068e-05 0.00110737 9.604e-05)
(-9.77771e-06 0.00108405 -2.52975e-05)
(6.49489e-05 0.00116731 -6.83898e-05)
(9.50629e-06 0.00111898 5.8627e-05)
(8.90692e-05 0.00117026 4.26864e-06)
(-4.89647e-05 0.00102743 1.16603e-05)
(5.58678e-05 0.00112597 4.58318e-05)
(0.000270032 0.00116259 -6.18536e-05)
(-1.90251e-05 0.00106213 -7.08024e-05)
(0.000428947 0.00121135 -5.61076e-05)
(2.64159e-05 0.000921748 -2.71451e-05)
(0.000187175 0.000737871 0.000126503)
(-0.000152737 0.00130412 -0.000213011)
(-6.63999e-05 0.00108632 1.77462e-05)
(1.87635e-06 0.000891463 -9.49507e-05)
(-0.000301892 0.000832328 -6.35938e-05)
(-0.000161011 0.000909267 -8.37587e-05)
(-0.000339945 0.000656869 5.4459e-05)
(-0.000482959 0.000624936 2.56484e-05)
(-8.40258e-05 0.00126162 -8.82851e-05)
(5.41733e-06 0.00120399 9.98526e-05)
(0.000301387 0.000907537 -0.000130008)
(-0.000180665 0.00127519 -1.75383e-05)
(-0.00045526 0.0010526 -0.000154869)
(-0.000278358 0.00141729 -1.13637e-05)
(0.000224962 0.00101844 -7.32785e-05)
(-0.000254037 0.00115792 -9.62902e-05)
(-0.000206251 0.00123357 0.000264009)
(0.000179737 0.00093352 0.00025876)
(-0.00035084 0.000866702 0.000209462)
(0.000378135 0.00114798 -0.000253679)
(-6.48509e-05 0.000966263 -0.000405967)
(-4.96763e-05 0.00136105 7.55075e-05)
(0.000582931 0.000996579 -8.44169e-05)
(-6.7121e-05 0.00117813 -2.86841e-05)
(0.000261011 0.00174228 -1.02739e-05)
(-0.000110308 0.000801482 3.33502e-05)
(0.000101977 0.00136702 3.23587e-05)
(-9.70596e-05 0.00128088 2.40986e-05)
(-8.78642e-05 0.00118247 -0.000274326)
(4.98397e-05 0.00144184 -0.000467944)
(0.000589387 0.000727211 9.13288e-05)
(-0.0001798 0.00175848 -7.39233e-05)
(0.000136784 0.000937501 -0.000205927)
(-0.000134101 0.000720034 -0.00028841)
(0.000264027 0.000783355 0.000270725)
(0.000306544 0.00101255 -0.000198763)
(-0.00059651 0.000652834 -0.000232848)
(-3.40335e-06 0.000765296 -0.000209647)
(-0.00257575 0.000125341 0.000187981)
(-0.00120157 0.000586952 8.64e-05)
(0.000269393 0.00174665 3.98926e-05)
(0.00109543 0.001439 0.000714367)
(-0.00267803 0.00254777 -7.15953e-05)
(-4.3941e-05 0.001206 -4.32582e-05)
(-6.40073e-05 0.00108091 2.61275e-05)
(4.17036e-05 0.000885357 -5.2658e-05)
(-0.000286378 0.00120069 3.76764e-05)
(0.000105423 0.00116426 0.000122012)
(-0.000181675 0.00116181 0.000100666)
(-2.06047e-05 0.00138289 0.000178487)
(6.04683e-05 0.00126048 3.0456e-05)
(2.2386e-05 0.000994311 6.93443e-06)
(0.000266491 0.00123022 -0.000317575)
(-7.26525e-05 0.00112243 -0.000284803)
(-0.000216601 0.000949929 -6.18741e-05)
(6.07405e-05 0.00110163 0.000106985)
(-2.15371e-05 0.00103866 -1.97324e-06)
(5.4199e-05 0.00117376 -8.95335e-05)
(2.64408e-06 0.00112616 1.29161e-06)
(1.10138e-05 0.001154 -0.000110582)
(-3.52601e-05 0.00103392 0.00010367)
(1.11511e-05 0.00107714 -6.3006e-05)
(3.05586e-05 0.00105659 1.26902e-05)
(0.000127985 0.000929581 4.24842e-05)
(5.70472e-05 0.00110354 -1.18177e-05)
(0.000123323 0.00100591 -0.00012572)
(3.87147e-05 0.00107381 7.06481e-06)
(-6.71546e-06 0.001068 1.8178e-06)
(-5.40482e-05 0.00117141 -2.59517e-05)
(1.37708e-05 0.00117496 0.000144321)
(2.47284e-05 0.00120312 2.39083e-05)
(-3.12063e-05 0.00115797 -4.41028e-05)
(7.39952e-05 0.00101387 1.21983e-05)
(0.00014383 0.000696174 -4.36592e-05)
(-0.00031802 0.000891014 8.2762e-05)
(-0.000102116 0.00107225 5.88134e-06)
(-0.000202639 0.00134744 2.79209e-05)
(-0.000138612 0.00114927 0.000167172)
(-0.000127396 0.00111913 5.88476e-06)
(-4.3682e-06 0.00104914 2.06862e-05)
(-6.962e-05 0.000634655 -1.18637e-05)
(-0.000177514 0.00129974 0.000125075)
(-0.000321439 0.000778148 -0.000109565)
(-0.000333463 0.000725928 -5.45154e-05)
(4.36374e-05 0.000894291 -0.000223928)
(3.99719e-05 0.000977869 -0.000122079)
(-7.81923e-05 0.000130342 0.000218378)
(-9.19906e-05 0.000564271 0.000277454)
(-0.000568694 0.000945987 0.000120049)
(-0.00010363 0.00177898 0.000318073)
(0.00162026 0.00172189 -7.17513e-06)
(-0.000368614 0.00087649 7.33298e-05)
(0.00129713 0.000951143 0.000405351)
(-1.56764e-05 0.00113549 0.00021673)
(0.000126018 0.00108059 0.000221238)
(0.000710155 0.000688463 -0.000351723)
(-0.000105512 0.00095068 -0.000130748)
(-0.000268766 0.00137669 0.000409876)
(-0.0006512 0.000785003 -6.80861e-05)
(-0.000221097 0.00134754 -9.77962e-05)
(0.000480238 0.000886987 -0.0001871)
(0.000225977 0.00130667 0.000293878)
(-0.000267491 0.000743109 -6.9087e-05)
(0.000310666 0.000418556 6.35565e-05)
(-0.00028837 0.000835285 2.75867e-05)
(2.05644e-05 0.0014114 -0.000154438)
(-7.87587e-05 0.00101307 0.000181928)
(-5.37299e-05 0.00143118 3.38919e-05)
(-2.19729e-05 0.00138148 -0.000335721)
(-0.000288703 0.000821233 -0.000147339)
(-0.000225496 0.00101122 1.37443e-05)
(-0.000253578 0.00147391 0.000152608)
(-0.000833511 0.00103698 0.000182007)
(0.000468467 0.0015973 -0.000160063)
(0.00030187 0.00171905 -6.46929e-05)
(0.000456603 0.000356711 -5.77791e-05)
(0.000588821 0.00121349 -4.79974e-05)
(0.000606547 -0.00186573 -0.000164035)
(0.0017718 -0.00115541 -0.000355977)
(0.000812831 0.00134256 -0.000106607)
(1.37783e-05 0.00112829 -2.95905e-05)
(6.2177e-05 0.00119229 2.53069e-05)
(-0.00033089 0.00121351 -9.61425e-05)
(-8.06796e-05 0.00109081 0.000153903)
(0.0001719 0.00101049 1.64804e-05)
(5.37184e-05 0.00112516 -3.93544e-05)
(-3.17101e-05 0.000281255 2.02115e-05)
(-8.04742e-05 0.00133568 -0.00024175)
(-0.000140966 0.00165297 -7.96059e-06)
(-0.000187346 0.00134576 -0.000206919)
(-0.000148598 0.000933509 -2.64709e-06)
(4.96656e-05 0.000918021 5.37497e-06)
(0.000158257 0.000818644 6.40869e-05)
(5.70109e-05 0.0010301 7.17334e-06)
(-0.000218129 0.00112094 -8.77388e-05)
(-0.000110406 0.00115715 -7.28897e-05)
(9.17673e-05 0.000978045 -0.000207134)
(2.67374e-05 0.00101913 -2.4105e-05)
(2.96782e-05 0.00111434 7.02518e-05)
(4.93003e-05 0.000941457 5.20846e-05)
(6.37142e-05 0.0011101 9.98429e-05)
(1.1633e-05 0.000927634 7.1649e-05)
(-0.00011442 0.00114828 -0.000102044)
(4.34545e-05 0.00106242 -3.89461e-05)
(1.15978e-05 0.00109325 -3.50335e-05)
(-7.567e-05 0.00110069 -1.11073e-05)
(7.78587e-05 0.00109975 -1.78779e-05)
(-0.000117455 0.00115211 -3.94341e-05)
(-1.64453e-05 0.00114405 -1.72616e-05)
(0.00012428 0.00106008 -4.57027e-06)
(-3.44116e-05 0.00105688 -1.70679e-06)
(0.000199248 0.000939548 9.1869e-05)
(-0.000311497 0.0010891 8.38048e-05)
(0.000168204 0.00115066 1.75159e-05)
(-0.000352868 0.000770574 -3.2779e-05)
(0.000149346 0.000877102 -4.23183e-05)
(-0.000354325 0.00127948 -1.67214e-05)
(0.000905965 0.00144017 0.000206855)
(0.000511545 0.00118056 -0.00012413)
(0.000288072 0.00069396 2.96823e-05)
(-0.000378321 0.000850292 -6.79441e-05)
(0.000491476 0.0014397 1.75406e-07)
(0.000632802 0.000892839 -9.10765e-05)
(0.000199394 0.00819396 -4.76025e-05)
(0.00182897 -0.00634755 -0.00082225)
(-0.00409229 0.00123526 0.000413289)
(-0.000293794 0.00429034 -0.000267931)
(-0.000600573 -0.000593724 -0.000208677)
(0.000317306 0.000273547 -0.000288009)
(0.00050143 0.00195675 -0.000277548)
(-0.000318405 0.00146632 0.000216901)
(0.000658257 0.000153282 0.00014957)
(0.000411292 8.58919e-05 -9.87962e-05)
(0.00041879 0.000817668 -0.000180274)
(0.000705613 0.00126127 0.000155918)
(0.000109802 0.000627597 -6.86385e-05)
(0.000673766 0.000850619 -2.0383e-05)
(0.000399943 0.00059517 -3.30898e-05)
(0.000101126 0.000682446 5.9685e-05)
(-0.000213599 0.000879456 -0.000109465)
(-0.000742531 0.000862853 5.95138e-05)
(-0.00067365 0.000604847 0.000145803)
(0.000880717 0.000970134 1.10013e-05)
(-0.000491794 0.00210297 0.00016185)
(0.000686329 0.00196098 -9.47546e-06)
(-0.000312423 0.000870433 -5.11433e-06)
(-0.000336591 0.00127876 -0.000252701)
(-0.000400149 0.0011705 8.74422e-05)
(-0.000575807 0.00170747 0.000167676)
(-6.9947e-05 0.00163261 0.000182941)
(-5.04804e-05 0.00146907 0.000117062)
(-5.58367e-05 0.000944423 0.000195512)
(0.000517447 0.00211862 4.69814e-05)
(-6.48345e-05 0.00122347 -5.57187e-06)
(-0.000389595 0.000923806 8.46659e-05)
(0.000186553 0.00104249 0.000122136)
(-0.000161404 0.000883862 -8.84649e-05)
(4.04325e-05 0.000975243 -1.43295e-05)
(1.44884e-05 0.0012344 0.000150369)
(7.42958e-07 0.000873966 3.08503e-05)
(0.000728962 0.0012953 -3.94091e-05)
(-0.000430684 0.00147578 4.02278e-05)
(0.000106002 0.000966278 -5.83008e-05)
(9.11622e-05 0.00140144 -7.25057e-05)
(-0.000228203 0.000916477 1.82888e-05)
(-0.000145114 0.00160442 5.8739e-05)
(-0.000141071 0.00120621 1.58781e-05)
(-0.000169739 0.00105393 -2.7156e-05)
(-0.000182042 0.00114885 0.00012)
(2.58451e-05 0.00105966 -0.000123991)
(-9.01892e-06 0.000920995 -8.64872e-05)
(4.78731e-05 0.00113233 -3.95826e-05)
(4.53475e-06 0.000926612 -3.00513e-05)
(9.92064e-05 0.000874329 3.64424e-05)
(0.000129965 0.00123329 7.91691e-05)
(0.000101172 0.000935515 4.91822e-05)
(0.00012713 0.000990906 0.000119243)
(0.000112911 0.00099582 -7.64208e-06)
(7.52904e-05 0.00102455 0.000118685)
(1.5193e-05 0.00104936 8.1735e-06)
(-2.59389e-05 0.00112741 -2.05763e-05)
(3.76786e-05 0.00109748 -6.00507e-05)
(0.000322077 0.00123619 -0.000102395)
(-2.69515e-05 0.0010762 -1.19478e-06)
(-0.000121506 0.00118661 -4.08539e-05)
(8.59725e-05 0.00106018 1.46828e-06)
(5.1746e-05 0.000984119 -5.10464e-05)
(0.000136817 0.00136988 -3.42242e-05)
(0.000796445 0.000700175 0.000259281)
(0.000114829 0.000971238 -4.0099e-05)
(-0.000472627 0.000596455 4.64803e-06)
(0.000191163 0.00135215 -2.11972e-05)
(-0.000280559 0.00111305 6.84018e-06)
(0.000263853 0.000959177 0.000134514)
(0.000757979 0.000193605 -6.02966e-05)
(0.00182757 0.000184466 1.73081e-05)
(-0.000819716 0.00121042 0.000315852)
(0.000705055 0.00178113 -0.000137366)
(0.00145542 0.00467808 0.000344567)
(0.000531914 0.00311303 -4.69879e-05)
(-0.00157759 -0.00118545 -0.000192286)
(-3.30434e-05 0.00199743 -0.000371959)
(0.000406658 0.00137414 -0.000193433)
(-0.000172371 -0.00134999 -0.000365552)
(-0.000151894 0.00154939 0.000176521)
(3.28568e-05 0.00314437 0.000104477)
(-6.37926e-05 0.000785629 0.000110311)
(-6.11033e-05 0.000586053 -0.000223766)
(0.000326141 0.000849817 -5.32059e-05)
(0.000203197 0.00111691 0.00017185)
(-0.000493991 0.000953059 -4.93427e-05)
(-0.000287277 0.00110641 0.000210413)
(-0.000248802 0.000887608 0.000219939)
(-0.000814939 0.000992059 -3.90894e-06)
(-0.00103769 0.000140651 -0.000521041)
(-0.00103921 -0.000398877 3.50473e-05)
(-0.000567113 0.0011757 0.000405227)
(-0.00110502 0.000955918 0.000164944)
(-0.000280586 0.00132851 -0.000285968)
(0.000251208 0.00102827 8.85143e-05)
(0.000403043 0.00132874 0.000197642)
(0.000807683 0.00127211 0.000233697)
(0.000812176 0.000809374 0.000177737)
(0.000660247 0.000824954 -9.61043e-05)
(0.000637386 0.00145864 -4.95072e-05)
(-6.51374e-05 0.00123263 4.69925e-05)
(-0.00021183 0.00154588 0.000332957)
(8.78752e-05 0.00143997 -0.000137342)
(-0.000153785 0.00153879 8.00963e-06)
(-0.000200904 0.00112456 0.000101645)
(-5.61552e-05 0.00107124 9.46495e-05)
(-3.72418e-05 0.00106737 7.85037e-05)
(-6.47066e-05 0.00118955 0.000139101)
(-6.38225e-06 0.000633303 0.000128185)
(-0.000126837 0.000971429 2.64366e-05)
(-0.000251838 0.00105602 -3.16313e-05)
(8.88952e-06 0.00140052 2.89305e-05)
(4.27627e-05 0.00155102 -4.79212e-05)
(-8.6148e-05 0.00107679 -8.26121e-05)
(4.94416e-05 0.000753043 5.7494e-06)
(-8.54467e-05 0.0010482 7.31443e-05)
(-0.000144842 0.00118048 2.8266e-05)
(-0.000175396 0.00102167 -2.68289e-06)
(-0.000237318 0.00108964 7.78987e-06)
(7.52908e-05 0.000999608 9.34834e-05)
(-7.61066e-05 0.000844409 -1.97995e-05)
(-4.95957e-05 0.00109164 -1.35526e-05)
(-0.000158339 0.00114591 -3.39612e-05)
(-0.000138556 0.0010929 8.06734e-05)
(5.08006e-05 0.00091624 -8.89625e-06)
(-2.55041e-05 0.000900086 4.9043e-05)
(0.000161647 0.00104311 7.88783e-05)
(-0.000152279 0.00087321 0.000107552)
(-9.21214e-05 0.00100473 8.31406e-05)
(4.31591e-05 0.00104536 -5.45836e-05)
(0.000258783 0.00138576 -8.60845e-05)
(3.5867e-05 0.00121548 8.64927e-05)
(4.99154e-05 0.00114077 -6.62669e-05)
(0.000115221 0.00107296 -4.45621e-05)
(0.000177592 0.000816478 1.25467e-05)
(-0.00042988 0.00114898 0.000172336)
(-0.000169091 0.000769348 -0.000192639)
(-0.000812816 0.00137807 -3.65655e-05)
(-0.000507714 0.000811445 0.000100609)
(0.000579968 0.000678064 -0.000258898)
(-0.00040433 0.000952844 -8.10671e-05)
(-7.12723e-05 0.00103666 -2.80853e-05)
(-0.000884761 0.000647033 5.46459e-05)
(0.000467391 0.000409989 -0.000187666)
(0.000180697 0.000594986 -5.70905e-05)
(0.000358532 0.000575275 -5.73176e-05)
(0.00124452 0.000383764 -6.48242e-05)
(7.50018e-05 0.00158317 -5.21705e-05)
(-0.000658445 0.000889191 -0.000205304)
(-5.09046e-05 0.00146462 6.61631e-05)
(0.000733522 0.00134195 -4.89829e-05)
(-0.00037338 0.00120359 0.000109564)
(0.000788434 0.000424659 -0.000167208)
(-0.000133846 0.000324805 6.21172e-05)
(-0.000126395 0.000544199 0.000272037)
(0.000539357 0.000975057 7.90611e-05)
(0.000973361 0.00109746 0.000177281)
(0.00347973 -0.00712724 -0.000126648)
(0.000480878 0.00132808 5.67351e-05)
(0.00129587 -0.00191934 -2.11861e-05)
(0.000412532 0.000915242 0.000241883)
(-0.000674044 0.000902056 -4.89189e-05)
(-0.000305957 0.00112028 -0.000252217)
(-0.000445653 -3.66241e-05 0.000490811)
(0.00145663 3.16111e-06 0.000128754)
(0.000926517 0.0012615 -0.000170159)
(-0.000639169 0.00143609 -0.000113388)
(-0.000239107 0.00162375 -0.000120235)
(0.00121698 0.00115442 -0.000142243)
(-0.000354718 0.000884147 0.000146501)
(0.00016375 0.00103289 0.000151596)
(0.000618679 0.00109004 1.79304e-05)
(5.90653e-05 0.00147273 3.77727e-05)
(0.000154507 0.00163183 0.000243251)
(0.000579027 0.00123088 3.52094e-05)
(0.000388185 0.00131126 0.000160463)
(0.000283303 0.0011067 1.83194e-05)
(-0.000224438 0.0015678 -3.71425e-05)
(0.000148514 0.000720203 -3.95782e-05)
(0.000130053 0.00105387 -2.79721e-06)
(0.000191392 0.00127397 -8.53178e-05)
(-9.23388e-05 0.00130784 -4.64304e-05)
(1.50133e-05 0.00106224 0.000147618)
(0.00021797 0.000756891 0.00012536)
(-3.00828e-05 0.00128878 2.29768e-05)
(0.000323406 0.000870048 -6.89209e-05)
(0.000286241 0.00127497 -8.47781e-05)
(-0.00021505 0.000581444 4.79423e-05)
(0.000203099 0.0010913 -2.051e-05)
(-0.000301951 0.000558345 3.65484e-05)
(7.52356e-05 0.00125612 8.51027e-05)
(0.000141951 0.000933335 0.000220036)
(0.000238069 0.000854542 2.64238e-05)
(-3.75186e-05 0.00107104 -5.73147e-05)
(4.36052e-05 0.00110314 -7.67978e-05)
(3.64619e-05 0.00096227 0.000135943)
(-4.51226e-05 0.00100807 0.000117836)
(-0.000575695 0.000723762 7.45871e-05)
(2.35267e-05 0.000922241 6.48725e-05)
(-8.19792e-05 0.000950566 4.11556e-05)
(7.97867e-05 0.00102373 9.50485e-05)
(0.000150801 0.0012438 5.88986e-05)
(-2.15341e-05 0.00121168 8.84919e-06)
(0.000330523 0.00123069 -6.29479e-05)
(8.74205e-05 0.00122841 -4.08139e-05)
(5.54328e-05 0.00120015 6.27418e-05)
(-5.42849e-05 0.00106898 -6.96466e-05)
(9.64369e-06 0.000993568 9.22912e-05)
(7.88224e-05 0.00122064 -7.03003e-05)
(9.73613e-05 0.00111465 5.10522e-05)
(0.000433496 0.000780216 5.45881e-05)
(-0.000281368 0.00124562 -1.09733e-05)
(-0.000122235 0.00123429 2.6106e-05)
(-0.000834011 0.000707156 -0.000253355)
(-9.65199e-07 0.000972422 -0.00021819)
(-0.000356081 0.000548658 5.07757e-05)
(-0.000274878 0.000666289 -7.72473e-05)
(6.1106e-05 0.000440252 5.52962e-05)
(-0.000180427 0.000947217 0.000132885)
(0.000546489 0.000492849 0.000100874)
(0.000150775 0.00106545 1.72047e-05)
(-0.000280278 0.00116708 -1.43502e-05)
(7.5875e-05 0.00119753 7.21902e-05)
(-0.000182357 0.00112474 -0.000130932)
(-0.000814587 0.00082247 0.000158327)
(-3.50562e-05 0.000923647 0.000203068)
(-0.000362838 0.0013206 8.72686e-05)
(-0.00013366 0.00127934 -3.47724e-05)
(-0.00040346 0.000842171 -6.21737e-05)
(0.000552049 0.000725357 -7.80875e-05)
(-0.000343537 0.00105157 -7.22298e-05)
(-0.000104277 0.00108941 2.70529e-05)
(0.0129288 -0.00532702 0.00121479)
(-0.0195749 0.0177951 -0.00110852)
(-0.000751533 0.000327073 0.000208906)
(0.000385166 0.000786766 9.25697e-05)
(-8.40904e-05 0.00101928 -2.22328e-05)
(0.000698516 0.000363071 0.000182312)
(-4.00685e-06 0.00205804 0.000488365)
(-0.000141432 0.00223761 0.000168686)
(-0.000885418 0.000267753 0.0003328)
(-0.000733194 0.00111114 1.86117e-05)
(8.22923e-05 0.000994606 0.000460169)
(-0.000603986 0.000636221 0.000142995)
(0.0011734 0.00104628 6.53533e-05)
(0.000774069 0.00191489 0.000129127)
(-0.000209512 0.00146807 4.21715e-05)
(-0.000244579 0.00147352 -5.30897e-05)
(-4.37004e-06 0.000804625 -5.75309e-05)
(-0.00013613 0.00162303 0.000305989)
(3.98011e-05 0.000501123 -3.74222e-05)
(0.000222023 0.000675587 0.000142481)
(0.000127541 0.00122788 0.000159624)
(-0.000292926 0.00101405 0.000141206)
(-4.63015e-05 0.00122517 -7.09226e-05)
(3.57107e-05 0.001055 -4.23196e-05)
(-0.000115365 0.00110655 7.60916e-05)
(-0.00048029 0.00122693 -8.01885e-05)
(-0.000241456 0.00108819 -0.000131147)
(-8.83807e-05 0.00107662 0.000160782)
(-5.72601e-05 0.00115487 -3.98323e-05)
(-0.000359317 0.00116691 -6.03728e-05)
(7.86104e-05 0.00099438 -9.82583e-05)
(0.000314168 0.000840909 5.13429e-05)
(0.000120884 0.00091961 0.000109641)
(0.000186175 0.00105705 1.85823e-05)
(9.54182e-05 0.00135116 -0.000165302)
(0.000112841 0.000910387 -0.000318801)
(-0.000283575 0.000863081 7.8984e-05)
(-0.000206622 0.000941518 -1.76498e-05)
(7.62439e-05 0.00119403 -5.57013e-05)
(2.66732e-05 0.00100706 -9.32675e-05)
(-1.53348e-06 0.000964795 8.30326e-05)