/*--------------------------------*- C++ -*----------------------------------*\
  =========                 |
  \\      /  F ield         | OpenFOAM: The Open Source CFD Toolbox
   \\    /   O peration     | Website:  https://openfoam.org
    \\  /    A nd           | Version:  8
     \\/     M anipulation  |
\*---------------------------------------------------------------------------*/
FoamFile
{
    version     2.0;
    format      ascii;
    class       labelField;
    location    "0/lagrangian/kinematicCloud";
    object      origId;
}
// * * * * * * * * * * * * * * * * * * * * * * * * * * * * * * * * * * * * * //


1722
(
36
37
108
107
109
179
180
252
251
323
324
325
397
468
539
540
611
682
9
41
42
74
73
106
177
248
319
320
390
391
461
462
532
533
604
674
675
11
746
745
81
82
152
153
223
224
294
295
365
436
507
577
578
648
649
8
9
46
85
156
226
227
297
298
367
368
438
439
508
577
578
579
647
717
718
719
788
789
791
38
39
111
110
181
182
183
253
254
326
327
398
469
470
541
612
683
684
10
11
43
75
107
108
179
178
249
250
321
392
463
534
535
605
606
676
677
747
748
12
13
83
154
225
296
367
366
437
438
509
508
579
10
47
48
650
86
87
157
158
228
299
369
370
440
509
580
650
648
649
720
721
790
792
40
41
112
113
184
255
256
328
399
400
471
542
543
613
614
685
44
45
76
77
12
109
180
251
252
322
323
393
394
464
465
536
607
678
749
14
84
85
155
156
226
227
297
298
368
369
439
510
580
581
652
651
11
12
49
50
88
159
229
230
300
371
441
510
511
581
651
652
722
723
724
793
794
795
42
43
114
115
185
186
187
257
330
329
401
473
472
544
615
616
686
687
13
14
46
79
78
110
111
182
181
253
324
395
466
467
537
538
608
609
679
680
751
15
16
87
750
86
157
158
228
299
370
440
441
511
512
582
583
653
13
51
89
90
160
161
231
301
302
372
442
443
512
513
582
583
584
653
654
725
796
44
45
46
116
188
258
259
331
332
402
403
474
475
545
546
617
688
16
47
48
80
15
112
183
254
255
325
326
396
397
468
539
610
681
752
753
17
18
88
159
229
230
301
300
371
372
443
442
513
514
584
655
654
14
15
52
53
91
92
162
232
233
303
373
374
444
514
515
585
586
655
656
726
727
797
47
118
117
119
189
190
260
261
262
333
404
476
547
618
619
689
690
17
49
81
82
113
114
184
185
256
327
328
398
399
469
470
540
541
611
612
682
683
754
19
89
90
160
161
231
232
302
303
373
444
515
585
586
656
657
17
16
54
93
163
164
234
304
305
375
376
445
446
516
587
657
658
728
729
798
799
800
48
49
120
121
191
263
264
334
335
405
406
477
478
548
549
620
691
692
18
19
50
51
83
115
187
186
257
258
329
400
471
542
613
614
684
685
755
756
20
21
91
92
162
233
304
374
375
445
446
516
517
587
658
18
55
56
94
165
235
236
306
307
377
447
448
518
519
517
589
588
659
731
730
801
50
122
192
193
194
265
266
336
337
338
407
408
480
479
550
551
621
622
693
20
52
84
85
116
117
188
259
330
331
401
402
472
473
543
544
615
686
757
22
93
163
164
234
235
305
306
376
447
518
588
589
659
660
19
20
57
95
96
166
167
237
308
378
379
449
520
590
591
661
660
662
732
733
802
803
804
51
123
124
125
195
196
267
339
409
410
481
552
623
694
695
21
22
53
54
86
118
189
190
261
260
332
403
474
546
545
616
617
688
687
758
759
24
23
94
95
166
165
236
307
378
377
448
449
520
519
590
661
21
58
59
97
168
238
239
309
380
450
451
521
522
523
592
593
663
664
734
735
805
52
53
54
126
197
198
268
340
411
482
483
553
554
624
625
696
23
55
87
88
120
119
191
262
263
333
334
404
405
475
476
547
548
618
619
689
690
760
25
96
167
237
238
308
309
379
380
450
451
521
592
591
663
662
22
23
60
98
99
169
240
310
311
381
382
452
454
453
524
594
595
665
666
736
806
807
55
56
127
128
129
199
269
270
341
412
413
484
555
626
627
697
698
24
25
56
57
89
90
121
122
192
193
264
335
406
407
477
478
549
620
691
761
762
26
27
97
98
168
169
239
240
310
381
452
522
523
593
594
664
665
24
61
62
100
101
170
171
241
242
313
312
383
455
525
526
596
667
738
737
808
809
57
58
130
200
201
271
342
343
414
485
486
556
557
628
699
27
26
58
59
91
123
194
265
266
336
337
408
479
480
550
551
621
622
692
693
763
28
29
99
764
170
241
311
312
382
383
453
454
524
525
595
666
26
25
63
64
102
172
173
243
314
384
385
386
456
457
527
597
598
668
669
739
740
810
59
60
131
132
202
272
273
274
344
345
415
416
487
558
629
630
700
701
28
60
92
124
125
195
196
267
338
409
410
481
552
623
694
765
30
100
101
171
172
242
243
313
314
384
385
455
526
596
597
667
668
27
28
65
103
104
174
175
244
245
316
315
387
458
528
529
599
670
741
811
812
61
133
203
204
275
346
347
417
418
488
489
559
560
631
702
30
29
61
62
93
94
126
197
268
269
339
340
411
482
553
554
624
625
695
696
766
767
31
32
102
103
173
174
244
315
386
457
456
527
528
599
598
669
670
29
66
67
105
106
176
246
247
248
317
318
388
389
459
530
600
601
671
672
742
743
813
814
62
134
135
205
206
207
276
277
278
348
419
420
490
491
561
562
632
633
703
704
31
63
95
127
128
198
199
270
341
342
412
413
483
484
555
626
697
768
33
104
175
245
246
316
317
387
388
458
459
529
600
671
30
31
68
69
107
108
177
178
249
319
320
390
391
460
461
531
532
602
673
744
815
63
64
65
136
208
279
349
350
421
492
563
634
705
706
744
745
783
822
784
823
129
130
200
201
271
272
343
414
485
486
556
557
627
628
698
699
769
34
35
105
770
106
176
177
247
318
389
460
530
531
601
602
672
673
32
33
70
109
179
180
250
251
321
322
392
462
463
533
603
604
674
675
745
746
816
817
0
137
138
139
209
210
211
280
281
351
352
422
423
493
494
564
565
635
636
707
785
746
786
131
202
824
825
273
344
345
415
416
487
558
629
700
701
772
36
37
771
107
178
248
249
319
320
390
391
461
462
532
603
674
34
71
72
110
111
181
182
252
323
393
394
464
465
534
535
605
606
676
677
748
747
818
1
66
68
67
140
212
282
353
424
495
566
567
637
638
708
709
748
826
787
747
132
133
203
204
274
275
346
417
418
488
489
560
559
630
631
702
773
38
109
108
179
180
250
251
321
322
392
393
463
534
533
604
605
676
35
36
74
675
73
112
183
253
254
324
325
395
396
466
536
607
678
679
749
750
819
820
451
238
522
593
664
735
71
0
142
213
355
426
96
167
309
239
380
523
452
595
594
665
736
1
72
143
214
284
356
497
569
568
64
0
32
97
65
168
169
240
310
311
381
382
453
524
596
666
738
737
3
2
73
144
215
286
285
357
427
498
570
640
38
639
710
743
76
531
602
673
674
33
1
66
34
98
170
241
312
383
454
525
597
667
739
4
74
75
145
216
217
287
288
358
428
571
499
1
641
0
39
77
148
218
147
289
360
389
390
460
462
461
532
603
604
605
675
2
676
35
3
67
99
171
242
313
384
455
527
526
598
668
740
5
6
76
146
147
218
289
359
430
429
500
642
643
2
40
78
79
149
150
219
220
291
290
361
431
318
319
391
463
464
533
534
606
677
4
36
69
37
68
100
101
172
243
314
385
386
456
457
528
599
669
670
741
7
77
148
219
220
290
361
360
431
501
502
573
572
644
4
3
41
151
80
221
222
293
292
363
362
433
432
502
503
176
177
247
248
320
392
393
465
535
536
607
608
678
679
5
6
38
70
71
102
103
173
174
244
245
315
316
387
458
459
529
530
600
601
671
8
79
742
743
78
149
221
291
362
432
433
503
504
574
575
646
645
5
81
82
42
43
152
153
223
224
294
295
365
364
435
434
504
574
573
644
645
34
35
105
106
178
249
250
321
322
394
395
396
466
537
467
538
609
610
680
681
7
8
39
40
72
104
105
175
176
246
247
317
318
388
389
460
531
602
603
672
673
744
9
10
80
150
151
222
292
293
363
364
434
435
505
506
576
647
44
6
7
45
83
84
154
155
225
296
366
436
437
505
506
507
576
575
646
716
715
786
787
)


// ************************************************************************* //
