/*--------------------------------*- C++ -*----------------------------------*\
  =========                 |
  \\      /  F ield         | OpenFOAM: The Open Source CFD Toolbox
   \\    /   O peration     | Website:  https://openfoam.org
    \\  /    A nd           | Version:  8
     \\/     M anipulation  |
\*---------------------------------------------------------------------------*/
FoamFile
{
    version     2.0;
    format      ascii;
    class       Cloud<passiveParticle>;
    location    "0/lagrangian/kinematicCloud";
    object      positions;
}
// * * * * * * * * * * * * * * * * * * * * * * * * * * * * * * * * * * * * * //

1722
(
(0.35225 0.340013 0.0977761 0.209961) 0 2 2
(0.229054 0.369331 0.266566 0.13505) 0 1 1
(0.612616 0.173072 0.0367581 0.177554) 0 0 1
(0.232456 0.367623 0.349077 0.0508443) 1 0 2
(0.216798 0.0139233 0.407739 0.361539) 1 0 1
(0.104544 0.463895 0.113561 0.317999) 1 3 2
(0.935332 0.0113107 0.00486532 0.0484922) 1 3 1
(0.104684 0.071293 0.392526 0.431497) 1 3 1
(0.725957 0.115933 0.153186 0.00492392) 2 3 1
(0.060261 0.0126962 0.440987 0.486056) 2 8 1
(0.35044 0.112254 0.2287 0.308606) 2 6 1
(0.671108 0.148303 0.0491856 0.131403) 3 6 2
(0.369282 0.299207 0.291996 0.039515) 3 9 2
(0.635037 0.198648 0.0896158 0.0766987) 4 9 2
(0.310073 0.361105 0.0104043 0.318418) 4 12 2
(0.322005 0.147167 0.322854 0.207975) 4 13 2
(0.375513 0.149368 0.296109 0.179009) 5 12 1
(0.683582 0.136202 0.0382025 0.142013) 5 15 1
(0.260038 0.353827 0.126778 0.259357) 6 15 2
(0.518399 0.138991 0.0856428 0.256967) 6 20 1
(0.141385 0.413159 0.0741578 0.371299) 6 19 1
(0.173313 0.114663 0.314848 0.397176) 6 18 1
(0.150681 0.436556 0.377554 0.0352097) 7 18 2
(0.688644 0.171869 0.100636 0.0388508) 7 22 1
(0.287846 0.317587 0.0222431 0.372324) 7 21 1
(0.657201 0.187592 0.0650344 0.0901725) 8 21 2
(0.39546 0.316347 0.10883 0.179363) 8 24 2
(0.153467 0.0341281 0.439411 0.372995) 9 24 1
(0.423574 0.272055 0.0656669 0.238705) 9 29 2
(0.41155 0.241793 0.309975 0.0366814) 9 28 2
(0.300734 0.0944922 0.2713 0.333474) 9 29 1
(0.102152 0.23994 0.465074 0.192834) 10 27 1
(0.114786 0.458748 0.184522 0.241944) 10 32 2
(0.841684 0.0160351 0.0785194 0.063762) 10 30 1
(0.332107 0.161594 0.317779 0.18852) 11 30 1
(0.215085 0.376288 0.349173 0.0594533) 11 35 2
(0.432182 0.157202 0.14287 0.267746) 11 33 1
(0.406215 0.0603193 0.313064 0.220402) 12 37 2
(0.520897 0.0289858 0.226679 0.223438) 12 33 1
(0.0908652 0.470684 0.0243643 0.414086) 12 38 2
(0.0531093 0.489631 0.252284 0.204976) 13 36 2
(0.226379 0.40295 0.271491 0.0991791) 13 40 1
(0.644688 0.161497 0.181135 0.0126797) 13 41 2
(0.0450036 0.289173 0.461327 0.204497) 13 40 2
(0.0548272 0.456585 0.144685 0.343903) 13 39 2
(0.2977 0.36731 0.323562 0.0114284) 14 43 1
(0.563384 0.20215 0.165132 0.0693335) 14 44 2
(0.0754177 0.328518 0.478471 0.117593) 14 43 2
(0.158803 0.436752 0.313651 0.090794) 14 42 2
(0.790091 0.104241 0.0888463 0.0168219) 15 42 1
(0.254075 0.269512 0.0873202 0.389093) 15 45 1
(0.0879363 0.472172 0.124441 0.31545) 16 50 2
(0.592458 0.1876 0.168068 0.0518751) 16 49 1
(0.288619 0.212176 0.159701 0.339505) 16 50 1
(0.344842 0.0274925 0.283932 0.343733) 16 48 1
(0.259771 0.354079 0.277768 0.108382) 17 48 2
(0.157972 0.404855 0.215687 0.221487) 17 52 1
(0.737067 0.0299837 0.117659 0.115291) 17 53 1
(0.163295 0.434503 0.0100056 0.392196) 18 51 2
(0.831209 0.0287517 0.0682099 0.071829) 18 55 2
(0.174818 0.0146425 0.381769 0.428771) 18 56 1
(0.207471 0.167257 0.380124 0.245148) 19 54 1
(0.24594 0.360923 0.330259 0.0628782) 19 59 2
(0.446501 0.129058 0.159216 0.265224) 19 57 1
(0.0115138 0.478087 0.00862428 0.501775) 19 57 2
(0.547149 0.134724 0.210275 0.107853) 20 57 1
(0.489172 0.0634513 0.175811 0.271565) 20 62 1
(0.0899527 0.269299 0.47118 0.169569) 20 61 2
(0.21332 0.289888 0.377336 0.119456) 21 60 1
(0.485735 0.230321 0.010648 0.273296) 21 65 1
(0.00643352 0.175347 0.337567 0.480653) 21 63 1
(0.0940837 0.427762 0.436782 0.0413727) 21 64 2
(0.003254 0.493005 0.109292 0.394448) 21 63 2
(0.833289 0.0995206 0.00643587 0.0607547) 22 63 2
(0.248392 0.0427833 0.349181 0.359644) 22 68 1
(0.329863 0.000734667 0.318198 0.351204) 22 66 1
(0.250107 0.208465 0.164089 0.377339) 23 70 1
(0.500955 0.265683 0.00440071 0.228961) 23 66 2
(0.35636 0.0617029 0.30826 0.273677) 23 69 2
(0.460827 0.0914283 0.167077 0.280668) 24 1 2
(0.47989 0.16443 0.243913 0.111767) 24 1481 2
(0.119367 0.281026 0.456487 0.14312) 24 72 2
(0.185843 0.319074 0.423217 0.0718652) 25 71 1
(0.462483 0.236922 0.0479688 0.252626) 25 4 2
(0.117979 0.431882 0.424856 0.0252827) 25 74 2
(0.0222602 0.031917 0.459362 0.486461) 25 73 1
(0.556776 0.205444 0.125616 0.112164) 26 73 2
(0.484123 0.241786 0.173641 0.10045) 26 75 2
(0.298853 0.366751 0.0536682 0.280728) 27 10 1
(0.336059 0.315807 0.180952 0.167182) 27 78 1
(0.63488 0.0135213 0.152927 0.198671) 27 10 2
(0.0711359 0.455093 0.0760403 0.397731) 28 13 1
(0.108788 0.204834 0.46179 0.224588) 28 77 1
(0.967729 0.0119449 0.0114418 0.00888431) 28 1809 1
(0.0602696 0.453722 0.173658 0.31235) 29 79 2
(0.404379 0.29743 0.0165182 0.281673) 29 16 2
(0.285789 0.170894 0.373225 0.170092) 29 82 2
(0.0590724 0.45428 0.0311762 0.455471) 29 81 2
(0.313139 0.128064 0.359576 0.199221) 30 81 1
(0.705552 0.0759588 0.0874159 0.131074) 30 83 1
(0.237311 0.365148 0.0761528 0.321388) 31 83 2
(0.578751 0.110117 0.116638 0.194493) 31 22 2
(0.0740589 0.479151 0.0407978 0.405992) 31 86 1
(0.172524 0.0863486 0.311248 0.429879) 31 85 1
(0.16678 0.432796 0.320563 0.0798604) 32 85 2
(0.0649832 0.397145 0.0651318 0.47274) 32 25 2
(0.606483 0.212933 0.0838792 0.0967043) 32 88 1
(0.212236 0.336479 0.0412626 0.410023) 32 87 1
(0.736819 0.147729 0.0307875 0.0846645) 33 87 2
(0.302642 0.332527 0.201973 0.162858) 33 89 2
(0.528963 0.240655 0.0854506 0.144931) 34 31 1
(0.182224 0.392733 0.368255 0.0567886) 34 92 1
(0.345145 0.00177646 0.309486 0.343593) 34 31 2
(0.343002 0.186795 0.312323 0.15788) 34 92 2
(0.390754 0.31371 0.00705131 0.288485) 35 34 2
(0.300161 0.154053 0.333789 0.211996) 35 91 1
(0.0539484 0.456872 0.252397 0.236782) 35 93 2
(0.307986 0.162073 0.329851 0.20009) 35 94 2
(0.731604 0.118044 0.0834931 0.0668595) 36 37 1
(0.134057 0.449124 0.322983 0.0938349) 36 96 1
(0.149446 0.409172 0.380907 0.0604746) 36 95 2
(0.80194 0.052758 0.08287 0.062432) 37 95 1
(0.065692 0.411616 0.0407005 0.481991) 37 97 1
(0.769041 0.131609 0.0386827 0.0606672) 38 100 1
(0.160691 0.17646 0.25934 0.403509) 38 99 1
(0.176178 0.42806 0.0175228 0.378239) 39 46 1
(0.336544 0.249521 0.0983832 0.315552) 39 46 2
(0.352666 0.339802 0.0873375 0.220194) 39 102 1
(0.152591 0.0519974 0.410892 0.384519) 39 102 2
(0.113663 0.426971 0.247708 0.211658) 40 101 2
(0.719353 0.10806 0.0484613 0.124126) 40 49 2
(0.84006 0.063803 0.0364702 0.0596668) 41 106 1
(0.0540592 0.192025 0.264761 0.489154) 41 52 2
(0.0930822 0.263657 0.205976 0.437285) 41 105 1
(0.00997208 0.511155 0.00358764 0.475285) 41 103 2
(0.27502 0.346336 0.117448 0.261196) 42 55 1
(0.398313 0.284698 0.08897 0.228018) 42 108 1
(0.4748 0.0177836 0.260963 0.246453) 42 55 2
(0.182722 0.00718035 0.4248 0.385297) 42 108 2
(0.518333 0.253838 0.0855941 0.142235) 43 107 2
(0.566057 0.10328 0.0975378 0.233125) 43 109 1
(0.275782 0.378263 0.210574 0.135381) 44 109 2
(0.0667784 0.450467 0.274143 0.208612) 44 112 1
(0.647536 0.0111996 0.181194 0.160071) 44 111 1
(0.199236 0.393339 0.192667 0.214758) 45 111 2
(0.674156 0.14517 0.179103 0.0015699) 45 114 2
(0.0181112 0.458872 0.0336225 0.489394) 45 113 1
(0.375232 0.296235 0.224086 0.104447) 46 67 1
(0.235713 0.37 0.365963 0.0283239) 46 116 2
(0.142258 0.397799 0.0148984 0.445044) 46 115 1
(0.226462 0.389243 0.15329 0.231006) 47 117 1
(0.352607 0.33985 0.168013 0.13953) 47 69 1
(0.47985 0.227658 0.0485623 0.24393) 47 1507 1
(0.494338 0.23689 0.210012 0.0587597) 48 1482 1
(0.64421 0.0280833 0.165994 0.161713) 48 118 1
(0.18963 0.38904 0.217383 0.203948) 49 118 2
(0.701631 0.100681 0.138311 0.0593769) 49 121 2
(0.305989 0.222475 0.330831 0.140705) 50 120 1
(0.249777 0.0924008 0.298872 0.35895) 50 76 2
(0.415102 0.173455 0.308619 0.102823) 50 123 2
(0.373429 0.297121 0.00862587 0.320824) 51 122 2
(0.513511 0.0233787 0.203742 0.259368) 51 78 2
(0.123506 0.369904 0.443699 0.0628906) 51 125 2
(0.372124 0.330119 0.0605066 0.23725) 52 124 2
(0.229409 0.149368 0.252062 0.369161) 52 80 2
(0.311829 0.27149 0.327929 0.0887514) 52 127 2
(0.00325829 0.482233 0.207914 0.306595) 53 82 1
(0.0782576 0.295187 0.446194 0.180361) 53 126 1
(0.939548 0.000305296 0.0140823 0.0460649) 53 129 2
(0.476092 0.278106 0.24313 0.002672) 54 84 1
(0.162311 0.435001 0.159538 0.243149) 54 131 1
(0.0735428 0.479378 0.0747612 0.372318) 54 130 2
(0.411498 0.0183307 0.260243 0.309928) 54 130 1
(0.0093298 0.511488 0.0950023 0.38418) 54 128 2
(0.573361 0.0769708 0.197146 0.152522) 55 130 1
(0.485138 0.241272 0.256709 0.0168813) 55 132 2
(0.458243 0.254704 0.153368 0.133685) 56 132 2
(0.202046 0.355493 0.382791 0.05967) 56 135 2
(0.455292 0.0542757 0.201879 0.288553) 56 88 2
(0.0334714 0.200453 0.467037 0.299039) 57 134 1
(0.228637 0.401824 0.0773096 0.292229) 57 90 1
(0.658927 0.154302 0.026302 0.16047) 57 137 1
(0.0203775 0.323402 0.182572 0.473648) 57 90 2
(0.0715484 0.395286 0.0851386 0.448027) 57 136 1
(0.878669 0.076838 0.0108908 0.0336023) 58 136 2
(0.166592 0.400514 0.326919 0.105975) 58 138 2
(0.792335 0.0876347 0.102098 0.0179321) 59 138 2
(0.256269 0.37187 0.0162007 0.355659) 59 140 1
(0.695345 0.0624209 0.136151 0.106084) 60 140 1
(0.0493309 0.337425 0.121755 0.491489) 60 96 2
(0.35333 0.143049 0.164129 0.339492) 60 142 1
(0.227753 0.369948 0.401301 0.000997775) 61 142 2
(0.572449 0.229944 0.112254 0.0853536) 61 145 1
(0.261524 0.195647 0.157455 0.385375) 61 98 2
(0.274684 0.0789114 0.29422 0.352184) 61 144 1
(0.300456 0.359752 0.277697 0.0620948) 62 144 2
(0.25305 0.389625 0.145082 0.212243) 62 147 1
(0.609308 0.0693982 0.109794 0.2115) 62 100 2
(0.0757984 0.147383 0.478234 0.298585) 62 147 2
(0.222114 0.372858 0.121482 0.283545) 63 146 2
(0.827581 0.0914139 0.0109512 0.0700541) 63 148 1
(0.0301008 0.468804 0.332397 0.168698) 64 104 1
(0.153506 0.32141 0.434282 0.090802) 64 148 1
(0.613025 0.140802 0.209659 0.0365132) 64 151 2
(0.258046 0.387138 0.0333964 0.32142) 64 150 2
(0.536178 0.216078 0.0924961 0.155248) 65 106 1
(0.113032 0.12576 0.439236 0.321972) 65 150 1
(0.283875 0.34259 0.24376 0.129775) 65 152 2
(0.146157 0.387604 0.410757 0.0554818) 65 153 2
(0.66404 0.16326 0.00724446 0.165455) 66 152 2
(0.345946 0.216503 0.110669 0.326882) 66 154 1
(0.189745 0.421292 0.269359 0.119604) 67 110 1
(0.406854 0.280433 0.22602 0.0866937) 67 157 1
(0.356413 0.337927 0.130818 0.174841) 67 156 2
(0.431169 0.0690079 0.268289 0.231534) 68 156 1
(0.72841 0.119637 0.00851277 0.14344) 68 158 2
(0.049705 0.491248 0.0802147 0.378833) 69 114 1
(0.10001 0.219203 0.43383 0.246957) 69 158 1
(0.712249 0.0223508 0.137713 0.127688) 69 114 2
(0.186075 0.390798 0.28901 0.134117) 70 160 2
(0.0694492 0.033007 0.44922 0.448324) 70 160 1
(0.142612 0.412742 0.170357 0.274289) 70 162 2
(0.815448 0.0761066 0.0050461 0.1034) 70 163 1
(0.0958437 0.0227367 0.468282 0.413138) 70 163 2
(0.47979 0.243926 0.00276877 0.273515) 71 1508 2
(0.68931 0.0580598 0.139165 0.113465) 71 162 1
(0.0940822 0.192889 0.436798 0.276231) 71 164 2
(0.699919 0.133868 0.00862942 0.157583) 72 165 2
(0.479602 0.033719 0.261 0.225679) 72 1483 2
(0.0136442 0.50895 0.126858 0.350548) 73 121 1
(0.067552 0.181436 0.482412 0.2686) 73 165 1
(0.277733 0.344962 0.0490355 0.32827) 73 167 2
(0.668757 0.159346 0.149419 0.0224768) 73 168 2
(0.0745132 0.0804765 0.366074 0.478936) 73 167 1
(0.654518 0.180244 0.135897 0.0293404) 74 167 2
(0.221606 0.0324893 0.34053 0.405375) 74 169 1
(0.0461832 0.493095 0.308861 0.15186) 75 169 2
(0.784066 0.0918157 0.112855 0.011264) 75 172 1
(0.2573 0.106295 0.248894 0.387511) 75 171 1
(0.0715955 0.48037 0.385872 0.0621627) 76 171 2
(0.844208 0.0593668 0.0940697 0.00235587) 76 171 1
(0.181328 0.393164 0.258922 0.166586) 76 173 2
(0.241259 0.395551 0.255167 0.108022) 77 176 1
(0.409717 0.27899 0.174289 0.137004) 77 129 1
(0.530299 0.0363534 0.218785 0.214563) 77 176 2
(0.121016 0.0904678 0.332872 0.455645) 77 129 2
(0.33675 0.240752 0.334253 0.0882455) 78 175 1
(0.714268 0.126648 0.0926848 0.0663993) 78 177 2
(0.0415955 0.0168305 0.463008 0.478566) 78 178 2
(0.234274 0.398919 0.182624 0.184182) 79 177 2
(0.34303 0.226591 0.0857032 0.344676) 79 133 2
(0.327442 0.352445 0.0506164 0.269496) 79 180 1
(0.165537 0.210626 0.222786 0.401052) 79 179 1
(0.0697862 0.450844 0.0379191 0.44145) 80 135 1
(0.798559 0.0243105 0.116891 0.0602396) 80 179 1
(0.237 0.365333 0.345332 0.0523353) 80 181 2
(0.734479 0.136994 0.028988 0.0995391) 81 137 1
(0.212367 0.409954 0.165815 0.211863) 81 183 2
(0.159055 0.223139 0.40432 0.213486) 81 184 2
(0.361715 0.33529 0.300247 0.00274904) 82 139 1
(0.370178 0.298794 0.312907 0.0181205) 82 186 1
(0.0444417 0.461673 0.0927784 0.401106) 82 185 2
(0.349992 0.141851 0.341155 0.167002) 82 186 2
(0.20476 0.38285 0.0308913 0.381498) 83 141 2
(0.364645 0.0603468 0.301532 0.273477) 83 185 1
(0.516149 0.0136484 0.2223 0.247903) 83 187 1
(0.490565 0.22244 0.0161254 0.27087) 84 143 2
(0.367297 0.300188 0.285582 0.0469324) 84 190 1
(0.298493 0.0675097 0.366906 0.267091) 84 190 2
(0.0729217 0.447368 0.349392 0.130318) 84 187 2
(0.16187 0.431479 0.208098 0.198553) 85 189 2
(0.71023 0.0673716 0.0613493 0.161049) 85 145 2
(0.158137 0.437084 0.196414 0.208365) 85 192 1
(0.106772 0.462752 0.0390704 0.391406) 86 191 2
(0.932737 0.0041582 0.0381755 0.0249293) 86 194 2
(0.0110177 0.36938 0.47833 0.141272) 87 193 1
(0.108048 0.429816 0.236593 0.225543) 87 149 1
(0.569333 0.199183 0.0348036 0.19668) 87 196 1
(0.300416 0.0779473 0.28799 0.333646) 87 149 2
(0.0856897 0.150337 0.31393 0.450044) 87 195 1
(0.517245 0.257538 0.0037283 0.221488) 88 151 1
(0.171575 0.398195 0.0690629 0.361167) 88 198 1
(0.523253 0.254511 0.0882578 0.133978) 88 197 2
(0.471525 0.248086 0.0394496 0.240939) 89 197 2
(0.574453 0.123802 0.0728086 0.228936) 89 199 1
(0.0526031 0.457534 0.4651 0.0247624) 90 199 2
(0.435878 0.0799895 0.265893 0.218239) 90 199 1
(0.389523 0.251266 0.0701153 0.289096) 90 155 2
(0.247942 0.18619 0.392168 0.1737) 90 202 2
(0.110441 0.460919 0.0680419 0.360598) 91 201 2
(0.0214522 0.241611 0.231504 0.505434) 91 157 2
(0.667824 0.103385 0.149998 0.0787935) 91 204 2
(0.267362 0.382482 0.0518539 0.298303) 92 203 2
(0.166482 0.286055 0.120639 0.426824) 92 159 2
(0.432554 0.233463 0.299878 0.0341045) 92 206 2
(0.245853 0.360891 0.0834347 0.309821) 93 205 2
(0.0178257 0.507012 0.0342291 0.440933) 93 208 1
(0.104946 0.419394 0.0119663 0.463694) 93 161 2
(0.311338 0.257906 0.102569 0.328187) 93 207 1
(0.170254 0.431017 0.214065 0.184664) 94 210 1
(0.604813 0.185113 0.028686 0.181387) 94 163 2
(0.142256 0.266122 0.146601 0.445021) 94 209 1
(0.616055 0.208121 0.0363864 0.139438) 95 164 1
(0.479939 0.0968175 0.147061 0.276183) 95 1509 1
(0.30526 0.223704 0.139832 0.331204) 96 166 2
(0.283849 0.17688 0.341923 0.197348) 96 213 2
(0.479771 0.181089 0.2522 0.0869401) 96 1484 2
(0.268757 0.376215 0.0099007 0.345127) 97 212 2
(0.720111 0.0325756 0.0913268 0.155987) 97 168 2
(0.103244 0.464572 0.376622 0.0555612) 98 170 1
(0.173038 0.34479 0.424324 0.057848) 98 214 1
(0.528916 0.178265 0.251706 0.0411127) 98 217 2
(0.0474818 0.0757109 0.460103 0.416704) 99 216 1
(0.538177 0.214736 0.225819 0.0212676) 99 216 2
(0.526598 0.252898 0.183337 0.0371669) 99 218 2
(0.371509 0.330382 0.0721182 0.225991) 100 174 1
(0.245734 0.00992822 0.39332 0.351018) 100 218 1
(0.0480246 0.217153 0.274997 0.459825) 100 174 2
(0.616847 0.0968345 0.206822 0.0794959) 100 221 2
(0.156249 0.367552 0.40631 0.0698886) 101 220 1
(0.819105 0.0425643 0.0450897 0.093241) 101 176 2
(0.120135 0.0727716 0.456099 0.350994) 101 223 2
(0.242807 0.39114 0.0036643 0.362389) 102 178 2
(0.40868 0.280594 0.178086 0.13264) 102 225 1
(0.386421 0.155661 0.134949 0.322969) 102 224 1
(0.035328 0.497448 0.219339 0.247884) 102 222 2
(0.562098 0.202744 0.00647181 0.228686) 103 224 2
(0.496047 0.241446 0.12535 0.137157) 103 226 2
(0.4639 0.251882 0.273617 0.0106004) 104 226 2
(0.133821 0.0239595 0.416939 0.42528) 104 226 1
(0.248641 0.17069 0.188852 0.391817) 104 182 2
(0.417539 0.2511 0.275072 0.0562889) 104 229 2
(0.016805 0.475425 0.181127 0.326643) 105 184 1
(0.0259234 0.318132 0.470966 0.184978) 105 228 1
(0.876894 0.0714509 0.0453706 0.0062847) 105 231 2
(0.0356283 0.46602 0.473982 0.0243697) 105 230 2
(0.909434 0.0614287 0.00651932 0.0226183) 106 186 1
(0.0597039 0.463275 0.364711 0.112311) 106 232 2
(0.67768 0.14502 0.118904 0.058396) 107 188 1
(0.0547939 0.298319 0.456459 0.190427) 107 235 2
(0.126539 0.452877 0.314396 0.106188) 107 234 2
(0.0502335 0.458739 0.319189 0.171838) 108 237 1
(0.826157 0.0965737 0.0065304 0.0707385) 108 190 2
(0.0061964 0.510421 0.00265512 0.480727) 108 236 1
(0.0205801 0.226501 0.247056 0.505863) 109 192 2
(0.845634 0.061035 0.0435704 0.0497606) 109 239 1
(0.103148 0.283156 0.181415 0.432282) 109 238 1
(0.199457 0.385397 0.139562 0.275585) 110 194 1
(0.381023 0.0941984 0.199129 0.32565) 110 194 2
(0.489706 0.271296 0.0594949 0.179502) 110 241 1
(0.199531 0.0542842 0.362101 0.384083) 110 240 1
(0.382195 0.325043 0.203138 0.0896243) 111 240 2
(0.664353 0.151673 0.0411949 0.142779) 111 242 2
(0.125749 0.453279 0.107639 0.313333) 111 243 1
(0.287518 0.372346 0.0191843 0.320952) 112 242 2
(0.748551 0.051904 0.0588181 0.140727) 112 244 1
(0.043205 0.0506527 0.411593 0.494549) 112 198 2
(0.278728 0.357919 0.269376 0.0939767) 113 200 1
(0.266114 0.146256 0.350788 0.236842) 113 244 1
(0.235376 0.398485 0.135421 0.230718) 113 246 2
(0.2814 0.227126 0.343135 0.148339) 113 247 2
(0.707266 0.130168 0.13299 0.0295756) 114 246 2
(0.0204874 0.473614 0.412495 0.0934042) 114 249 1
(0.364435 0.257169 0.0768075 0.301588) 114 248 1
(0.200794 0.383494 0.0827633 0.332949) 115 204 1
(0.40081 0.283398 0.246991 0.0688014) 115 251 1
(0.695733 0.16061 0.0165411 0.127116) 115 250 2
(0.216076 0.395468 0.354796 0.0336607) 116 250 2
(0.219791 0.406272 0.307706 0.0662306) 116 253 1
(0.852721 0.0574439 0.0670568 0.0227781) 116 252 2
(0.0468201 0.492808 0.085401 0.374971) 116 252 2
(0.559352 0.0613043 0.23651 0.142833) 117 252 1
(0.248561 0.359777 0.194844 0.196817) 117 254 2
(0.0326317 0.277343 0.499867 0.190159) 117 255 2
(0.337021 0.347646 0.189662 0.125671) 118 256 2
(0.763768 0.01286 0.134284 0.0890886) 118 254 1
(0.0373288 0.466308 0.325711 0.170652) 119 211 1
(0.135514 0.416149 0.402144 0.046193) 119 258 1
(0.48004 0.276132 0.13343 0.110399) 119 1510 2
(0.479852 0.243921 0.226719 0.0495082) 120 1485 1
(0.637393 0.113053 0.0520983 0.197456) 120 259 1
(0.198817 0.39927 0.295035 0.106877) 121 259 2
(0.161783 0.435248 0.385532 0.0174368) 121 262 1
(0.332373 0.255366 0.0622996 0.349961) 121 215 2
(0.246278 0.299755 0.393005 0.0609617) 121 262 2
(0.104307 0.464005 0.206732 0.224956) 122 261 2
(0.886872 0.0379138 0.034824 0.0403898) 122 217 2
(0.0837264 0.441969 0.327964 0.146341) 122 264 1
(0.0297622 0.376733 0.0922096 0.501295) 122 263 1
(0.114671 0.426528 0.434301 0.0245) 123 219 1
(0.243769 0.393648 0.356301 0.00628223) 123 265 2
(0.748519 0.141938 0.084033 0.0255099) 124 221 1
(0.144825 0.411439 0.156165 0.287571) 124 267 2
(0.191893 0.126641 0.420226 0.26124) 124 268 2
(0.16851 0.399574 0.313164 0.118752) 125 223 1
(0.481998 0.242872 0.269059 0.00607081) 125 270 1
(0.566835 0.102265 0.130496 0.200405) 125 269 1
(0.372794 0.32298 0.0205222 0.283704) 126 269 2
(0.651542 0.0180661 0.172311 0.15808) 126 225 2
(0.0197853 0.163741 0.473927 0.342547) 126 272 2
(0.251312 0.358167 0.334286 0.0562356) 127 271 2
(0.309045 0.361645 0.187573 0.141737) 127 274 1
(0.0903048 0.358795 0.112244 0.438656) 127 227 2
(0.451814 0.0694178 0.220844 0.257925) 127 273 1
(0.505674 0.183004 0.231018 0.0803042) 128 273 1
(0.502938 0.261099 0.17979 0.0561731) 128 275 2
(0.0857788 0.440963 0.445227 0.0280312) 129 278 1
(0.499421 0.26643 0.196716 0.0374342) 129 275 2
(0.307179 0.300949 0.362554 0.0293183) 129 278 2
(0.347133 0.0933119 0.216943 0.342612) 129 231 2
(0.0399268 0.23755 0.463848 0.258675) 130 277 1
(0.191892 0.420218 0.138352 0.249537) 130 233 1
(0.621798 0.172919 0.0181253 0.187158) 130 280 1
(0.11237 0.227437 0.200384 0.459808) 130 233 2
(0.045703 0.322855 0.13812 0.493322) 130 279 1
(0.0433952 0.462159 0.174088 0.320358) 131 235 1
(0.763072 0.134657 0.0278515 0.0744196) 131 282 1
(0.131651 0.364708 0.0532973 0.450344) 131 281 1
(0.772308 0.0976695 0.103301 0.0267208) 132 284 1
(0.0975375 0.247351 0.187694 0.467418) 132 237 2
(0.223311 0.18422 0.220345 0.372124) 132 283 1
(0.284033 0.341816 0.0393568 0.334793) 133 239 1
(0.362461 0.3026 0.154763 0.180176) 133 286 1
(0.471445 0.107249 0.140881 0.280424) 133 239 2
(0.212604 0.055335 0.409872 0.322189) 133 286 2
(0.266268 0.383032 0.162806 0.187894) 134 285 2
(0.0419812 0.495201 0.169575 0.293242) 134 288 1
(0.78208 0.0952367 0.0198846 0.102799) 134 287 2
(0.169951 0.398854 0.0148658 0.41633) 135 287 2
(0.812498 0.0328722 0.109263 0.0453668) 135 290 2
(0.0584672 0.118655 0.368256 0.454622) 135 243 2
(0.0756006 0.266109 0.478337 0.179954) 136 289 1
(0.259482 0.386376 0.197474 0.156669) 136 245 1
(0.394575 0.288285 0.286547 0.0305925) 136 292 2
(0.00675256 0.074407 0.438366 0.480474) 136 291 1
(0.395542 0.286069 0.0369606 0.281429) 136 291 2
(0.615739 0.175953 0.133987 0.0743211) 137 291 2
(0.392843 0.259752 0.0599657 0.28744) 137 293 1
(0.336801 0.263752 0.0839898 0.315457) 138 249 2
(0.465292 0.251221 0.206189 0.0772976) 138 296 1
(0.0393712 0.465637 0.107979 0.387013) 139 295 2
(0.141148 0.217119 0.228495 0.413237) 139 251 2
(0.645232 0.161202 0.0527626 0.140804) 139 298 1
(0.882916 0.0746934 0.0373069 0.0050835) 140 253 1
(0.0295383 0.36329 0.501243 0.105929) 140 297 1
(0.0889447 0.0789933 0.362849 0.469213) 140 253 2
(0.188866 0.140191 0.249207 0.421735) 140 299 1
(0.606656 0.212854 0.115292 0.0651977) 141 299 2
(0.415717 0.109976 0.198369 0.275938) 141 301 1
(0.336173 0.348066 0.243097 0.0726636) 142 301 2
(0.264675 0.351505 0.122873 0.260946) 142 304 1
(0.359139 0.156227 0.180108 0.304527) 142 257 2
(0.100456 0.0800753 0.433636 0.385832) 142 304 2
(0.0736364 0.374577 0.0724489 0.479338) 143 258 2
(0.571189 0.118431 0.230182 0.0801987) 143 303 1
(0.479891 0.0600204 0.216177 0.243912) 143 1511 1
(0.000322221 0.483701 0.239816 0.276161) 144 260 1
(0.480001 0.049455 0.243869 0.226675) 144 1486 2
(0.556756 0.0403033 0.197466 0.205475) 144 260 2
(0.0494291 0.200526 0.459129 0.290916) 144 307 2
(0.725149 0.124972 0.128802 0.0210767) 145 306 1
(0.300563 0.365879 0.310945 0.0226125) 145 308 2
(0.645174 0.0375257 0.161275 0.156025) 146 308 1
(0.249064 0.219919 0.171684 0.359333) 146 264 2
(0.0921744 0.417117 0.470084 0.0206253) 147 310 1
(0.0414122 0.495468 0.354797 0.108322) 147 266 1
(0.563924 0.201885 0.0060365 0.228155) 147 313 1
(0.321125 0.355591 0.0411511 0.282133) 147 312 2
(0.0269235 0.108593 0.364682 0.499802) 147 312 1
(0.0967216 0.435469 0.25922 0.20859) 148 268 1
(0.568319 0.22698 0.0175516 0.187149) 148 315 1
(0.1101 0.375275 0.0621389 0.452485) 148 314 1
(0.830508 0.0790352 0.0812756 0.00918155) 149 314 2
(0.0938682 0.217102 0.469228 0.219802) 149 317 2
(0.226854 0.398281 0.165326 0.209538) 149 316 2
(0.382408 0.292647 0.310183 0.0147622) 150 319 1
(0.269053 0.381619 0.221966 0.127362) 150 272 1
(0.648261 0.0114465 0.14825 0.192042) 150 318 1
(0.291723 0.334319 0.370308 0.00364987) 151 318 1
(0.750073 0.00918055 0.0996202 0.141127) 151 274 2
(0.129267 0.0307518 0.420774 0.419207) 151 320 1
(0.186986 0.390317 0.282123 0.140574) 152 320 2
(0.185089 0.334206 0.0570941 0.423611) 152 276 2
(0.473547 0.279406 0.0707375 0.17631) 152 323 1
(0.227936 0.25514 0.147048 0.369876) 152 322 1
(0.745373 0.118285 0.11117 0.0251718) 153 322 1
(0.275696 0.345982 0.275068 0.103254) 153 324 2
(0.719853 0.156246 0.11459 0.00931158) 154 324 2
(0.317857 0.357223 0.176421 0.148498) 154 326 2
(0.0548088 0.343885 0.456441 0.144865) 154 327 2
(0.59906 0.184314 0.0205565 0.19607) 155 282 1
(0.12717 0.452557 0.375907 0.0443671) 155 329 1
(0.402805 0.314741 0.0493195 0.233135) 155 328 2
(0.219007 0.300896 0.377127 0.10297) 155 329 2
(0.648085 0.192083 0.0981823 0.0616492) 156 284 1
(0.163199 0.093634 0.413896 0.329271) 156 328 1
(0.198984 0.416662 0.314731 0.0696234) 156 330 2
(0.0435694 0.369034 0.494377 0.0930196) 156 331 2
(0.861946 0.0474651 0.0528825 0.0377064) 157 330 1
(0.184017 0.311195 0.0806467 0.424141) 157 332 1
(0.636687 0.165514 0.131684 0.0661148) 158 335 1
(0.138955 0.140895 0.273433 0.446718) 158 288 2
(0.279576 0.088231 0.288123 0.34407) 158 334 1
(0.318695 0.356829 0.105726 0.218749) 159 290 1
(0.276083 0.378113 0.147583 0.198222) 159 337 1
(0.506656 0.00625555 0.256604 0.230485) 159 290 2
(0.0885117 0.144041 0.471884 0.295563) 159 337 2
(0.429132 0.269214 0.159364 0.14229) 160 336 2
(0.623577 0.204407 0.154502 0.0175151) 160 338 2
(0.319287 0.244346 0.356516 0.0798504) 161 338 1
(0.105042 0.463623 0.41594 0.0153953) 161 294 1
(0.482207 0.132247 0.265091 0.120455) 161 341 2
(0.114853 0.458707 0.166683 0.259757) 161 340 2
(0.790567 0.0885894 0.0492753 0.0715681) 162 340 2
(0.0126285 0.231949 0.277476 0.477947) 162 296 2
(0.300198 0.0978462 0.235889 0.366067) 162 342 1
(0.411531 0.310414 0.207704 0.0703508) 163 342 2
(0.0765313 0.44557 0.185434 0.292464) 163 345 1
(0.562106 0.00228137 0.205389 0.230224) 163 298 2
(0.302768 0.332482 0.340745 0.0240052) 164 300 1
(0.256291 0.225563 0.355866 0.162279) 164 344 1
(0.0167883 0.507794 0.45562 0.0197978) 164 346 2
(0.304751 0.259483 0.363792 0.0719748) 164 347 2
(0.134446 0.416595 0.321993 0.126966) 165 302 1
(0.592201 0.101882 0.19044 0.115477) 165 349 2
(0.0264744 0.470571 0.204157 0.298797) 166 348 2
(0.858204 0.0870674 0.0239891 0.0307393) 166 351 1
(0.179035 0.0955574 0.329833 0.395575) 166 350 1
(0.558496 0.204622 0.196493 0.0403887) 167 350 2
(0.489398 0.239155 0.165568 0.105879) 167 1512 2
(0.768625 0.0995629 0.128106 0.00370629) 168 1487 1
(0.338484 0.150216 0.164375 0.346926) 168 353 1
(0.432061 0.269196 0.26088 0.0378631) 169 353 2
(0.260264 0.18122 0.17249 0.386026) 169 309 2
(0.386812 0.263942 0.290442 0.0588036) 169 356 2
(0.307753 0.332037 0.209211 0.150998) 170 355 2
(0.0155014 0.0103851 0.492527 0.481587) 170 355 1
(0.0996987 0.235603 0.230722 0.433977) 170 311 2
(0.570748 0.168571 0.230791 0.0298908) 170 358 2
(0.0215509 0.0925498 0.505378 0.380521) 171 357 1
(0.710352 0.160974 0.0445306 0.0841428) 171 359 2
(0.357126 0.337586 0.25255 0.0527376) 171 357 2
(0.0292517 0.085535 0.383681 0.501532) 171 359 1
(0.638474 0.196904 0.0940257 0.0705965) 172 359 2
(0.414518 0.308892 0.0360854 0.240504) 172 361 2
(0.165214 0.276605 0.401243 0.156939) 172 362 2
(0.198453 0.38462 0.165576 0.251351) 173 317 1
(0.225421 0.114522 0.371124 0.288934) 173 361 1
(0.745526 0.0418075 0.111056 0.10161) 173 364 2
(0.110781 0.460762 0.000810481 0.427647) 174 363 2
(0.677571 0.135845 0.0415272 0.145057) 174 319 2
(0.00917024 0.479636 0.189996 0.321198) 174 365 2
(0.262036 0.0240292 0.352973 0.360962) 174 366 2
(0.0997447 0.440437 0.415615 0.0442031) 175 321 1
(0.551327 0.240502 0.168977 0.0391941) 175 368 1
(0.429765 0.20564 0.0956214 0.268974) 175 367 1
(0.510325 0.255636 0.054723 0.179315) 176 367 2
(0.547446 0.210121 0.0269526 0.21548) 176 369 2
(0.010845 0.370914 0.510742 0.107499) 176 370 2
(0.340933 0.313339 0.0273792 0.318348) 177 325 1
(0.24201 0.395157 0.318324 0.0445087) 177 372 1
(0.129256 0.263505 0.188082 0.419157) 177 325 2
(0.462791 0.0323198 0.257109 0.24778) 177 372 2
(0.0152709 0.476164 0.142124 0.366441) 178 327 1
(0.69847 0.135975 0.161164 0.0043914) 178 374 1
(0.215463 0.321456 0.0546587 0.408423) 178 373 1
(0.750637 0.0982218 0.108514 0.0426269) 179 373 1
(0.291939 0.337872 0.337286 0.0329024) 179 375 2
(0.662095 0.112293 0.152783 0.0728286) 180 375 1
(0.359416 0.203977 0.118354 0.318253) 180 377 1
(0.103394 0.432154 0.0600413 0.404411) 181 333 1
(0.601481 0.1831 0.207044 0.00837459) 181 380 1
(0.374315 0.17144 0.157563 0.296682) 181 333 2
(0.209903 0.104509 0.306547 0.379042) 181 379 1
(0.570666 0.225413 0.112461 0.0914597) 182 379 2
(0.00705036 0.47604 0.480362 0.0365479) 182 382 2
(0.297602 0.335056 0.333231 0.0341105) 182 381 2
(0.666979 0.0944754 0.182679 0.055866) 183 381 1
(0.330725 0.169322 0.181395 0.318558) 183 383 1
(0.118672 0.424576 0.227164 0.229589) 184 339 1
(0.463129 0.284585 0.1719 0.0803859) 184 386 1
(0.337156 0.0709465 0.27661 0.315288) 184 339 2
(0.247037 0.0791068 0.39263 0.281226) 184 386 2
(0.464049 0.251842 0.217527 0.0665818) 185 385 2
(0.00102286 0.51561 0.173502 0.309865) 185 388 1
(0.603324 0.21319 0.163639 0.0198476) 185 387 2
(0.0190604 0.47432 0.0660626 0.440557) 186 343 1
(0.295345 0.137272 0.336183 0.2312) 186 387 1
(0.539691 0.208391 0.0379358 0.213982) 186 343 2
(0.0883445 0.310084 0.472004 0.129567) 186 390 2
(0.0244275 0.503935 0.445911 0.0257265) 186 389 2
(0.697011 0.166776 0.0351145 0.101099) 187 392 1
(0.308219 0.0534942 0.308567 0.32972) 187 345 2
(0.18067 0.0572929 0.336211 0.425826) 187 391 1
(0.504831 0.231438 0.161052 0.10268) 188 391 2
(0.403913 0.287642 0.284859 0.0235865) 188 393 2
(0.204509 0.381597 0.099447 0.314447) 189 349 1
(0.378333 0.326986 0.250502 0.0441786) 189 396 1
(0.735713 0.147401 0.0476971 0.0691885) 189 395 2
(0.042968 0.494696 0.00992081 0.452415) 190 351 1
(0.125862 0.2071 0.453238 0.2138) 190 395 1
(0.562018 0.235139 0.197039 0.00580384) 190 351 1
(0.220566 0.244586 0.128961 0.405887) 190 397 1
(0.240998 0.119338 0.276313 0.363351) 191 352 2
(0.502273 0.232708 0.0377965 0.227223) 191 352 1
(0.114467 0.426745 0.11647 0.342317) 191 399 1
(0.132364 0.43072 0.173708 0.263209) 192 354 1
(0.643099 0.194601 0.0324277 0.129872) 192 400 2
(0.297306 0.367515 0.271444 0.0637347) 193 400 2
(0.156266 0.405722 0.326586 0.111426) 193 403 1
(0.834688 0.066474 0.0970072 0.00183075) 193 402 2
(0.0430276 0.178193 0.462308 0.316471) 194 402 1
(0.797886 0.0849047 0.0181352 0.0990742) 194 358 1
(0.238468 0.300422 0.0965022 0.364608) 194 404 1