/*--------------------------------*- C++ -*----------------------------------*\
  =========                 |
  \\      /  F ield         | OpenFOAM: The Open Source CFD Toolbox
   \\    /   O peration     | Website:  https://openfoam.org
    \\  /    A nd           | Version:  8
     \\/     M anipulation  |
\*---------------------------------------------------------------------------*/
FoamFile
{
    version     2.0;
    format      ascii;
    class       vectorField;
    location    "0/lagrangian/kinematicCloud";
    object      torque;
}
// * * * * * * * * * * * * * * * * * * * * * * * * * * * * * * * * * * * * * //


1722
(
(-2.13477e-09 -2.29816e-08 -2.98353e-08)
(-1.13793e-07 -1.66988e-08 3.964e-08)
(-4.39843e-08 1.4649e-09 -6.53688e-08)
(-7.78295e-08 -3.21631e-08 -5.97928e-08)
(-3.88408e-10 1.09794e-07 1.82917e-08)
(1.79402e-07 1.03218e-07 1.89435e-08)
(6.09683e-08 1.27433e-08 -5.18526e-08)
(-2.34198e-07 -1.72169e-07 1.3073e-07)
(2.5463e-08 2.0951e-07 -1.88527e-08)
(-6.40716e-08 -8.12659e-08 -5.74446e-08)
(2.1316e-07 -7.49331e-07 -9.86207e-08)
(-1.13427e-07 -1.03284e-07 -1.67312e-07)
(8.39716e-09 1.96267e-07 3.24192e-08)
(5.44084e-08 -3.06933e-08 2.59496e-08)
(6.68926e-08 -1.68854e-08 -1.08638e-07)
(4.83103e-08 -8.51704e-08 -2.02945e-09)
(1.50498e-07 4.51462e-08 1.25996e-07)
(8.39343e-08 1.08072e-07 -5.01953e-08)
(-4.57456e-08 2.30465e-07 1.1844e-07)
(3.31456e-07 2.28902e-07 1.26992e-07)
(3.25656e-08 -4.07869e-09 -1.13961e-07)
(-1.85941e-07 -7.90047e-08 -2.04603e-07)
(3.84098e-08 8.69415e-08 -4.12603e-08)
(-6.04058e-08 1.93642e-07 4.95317e-08)
(-1.3852e-07 -1.74193e-07 -1.83939e-07)
(4.30125e-07 1.01844e-07 -1.26229e-07)
(7.42574e-08 3.48048e-08 2.11239e-08)
(-2.28155e-07 -3.27535e-07 -8.24893e-08)
(-2.48994e-07 5.64286e-07 1.39801e-07)
(2.04165e-07 1.61321e-07 -3.23987e-08)
(2.3003e-07 1.46529e-07 -4.60484e-08)
(2.28142e-08 -2.19571e-07 6.87788e-08)
(5.40433e-08 -1.36385e-07 -4.30545e-07)
(-5.01862e-08 -4.61712e-08 -1.759e-07)
(-6.3214e-08 -1.49644e-07 -2.19617e-07)
(-1.59281e-07 -1.79712e-09 -2.84166e-07)
(-3.88022e-07 -3.62224e-07 -3.55577e-07)
(-5.01279e-07 5.39745e-07 1.12999e-07)
(-4.38183e-07 -4.1226e-07 -1.46638e-07)
(-3.56359e-08 3.82147e-08 1.01952e-06)
(3.45513e-07 4.06521e-08 2.32038e-07)
(2.2655e-07 4.43093e-08 6.78794e-08)
(3.94741e-07 -4.9428e-07 2.11891e-07)
(1.2703e-07 5.27802e-08 -6.2598e-08)
(3.39404e-08 2.14518e-07 -1.36141e-07)
(9.67954e-08 7.83208e-09 -9.92763e-08)
(-2.61294e-07 -1.87946e-07 2.78842e-07)
(-6.4261e-07 -3.50013e-07 -1.29786e-07)
(-1.92615e-08 1.54542e-08 9.08492e-08)
(-5.38283e-09 3.4178e-08 -1.76629e-07)
(-1.8236e-07 1.04949e-07 5.12113e-08)
(3.12568e-08 5.6357e-08 -6.1591e-08)
(2.95733e-07 2.02677e-07 -1.4382e-07)
(2.21501e-07 -2.55728e-07 2.852e-07)
(3.18034e-09 -4.92084e-08 -1.63005e-07)
(2.96531e-08 -2.01516e-07 5.11915e-09)
(-1.06566e-07 2.60144e-08 7.30819e-08)
(-7.55303e-08 2.35285e-07 1.62946e-07)
(6.67519e-08 -6.47896e-07 8.03527e-08)
(1.24371e-07 1.38553e-07 1.28133e-07)
(5.97518e-07 -2.38329e-07 -8.54462e-08)
(-1.13936e-08 2.16087e-07 4.85655e-07)
(-3.00469e-07 -1.549e-07 2.78468e-07)
(1.1322e-07 8.58091e-08 8.79396e-07)
(1.76805e-07 -4.02821e-07 1.38075e-06)
(1.08263e-08 5.53235e-07 -2.67314e-07)
(-1.5713e-07 3.5163e-07 -1.03139e-07)
(4.67944e-07 5.32879e-07 -8.01694e-07)
(9.70232e-08 -1.72616e-08 -5.36491e-07)
(-6.13219e-07 -2.54151e-07 -5.61002e-07)
(-1.21867e-07 -6.214e-07 -2.83642e-07)
(6.81165e-07 -9.32115e-07 6.15174e-07)
(5.61912e-07 -1.02485e-06 1.20952e-07)
(-6.59274e-07 -3.48176e-07 -2.71516e-07)
(9.81371e-07 3.94755e-07 -6.53267e-07)
(-5.78148e-07 6.53043e-07 -7.16898e-07)
(3.73643e-07 -2.37826e-07 -5.28954e-07)
(4.8879e-07 2.75364e-07 9.7897e-07)
(-1.25359e-07 -5.18925e-08 2.51817e-07)
(7.47337e-08 -9.56607e-08 -2.29386e-08)
(2.41522e-08 -1.82712e-08 -3.80184e-08)
(-9.14048e-08 -3.5031e-08 5.18831e-08)
(8.03023e-08 1.53014e-07 4.67171e-08)
(1.28261e-08 -2.31274e-07 -9.38988e-08)
(1.58128e-07 4.64167e-08 -1.22208e-07)
(-8.98391e-08 -9.82852e-08 1.9977e-07)
(2.70869e-07 1.9125e-07 -5.5918e-08)
(-1.65081e-07 -1.09458e-07 3.64202e-07)
(-2.90121e-07 2.41338e-07 2.60082e-07)
(-2.11327e-08 2.55685e-07 1.21272e-07)
(1.0043e-07 -3.84885e-08 -2.98649e-08)
(2.55498e-07 -7.88944e-08 -1.97186e-08)
(-1.6236e-07 -6.32252e-08 -2.28113e-08)
(1.35482e-07 8.47737e-08 -7.86371e-08)
(-1.3121e-07 7.81093e-08 6.89919e-08)
(3.79413e-09 8.02928e-08 -3.45791e-08)
(-9.22527e-08 8.17447e-08 3.03243e-07)
(3.95267e-08 1.08929e-07 1.6905e-07)
(4.41287e-08 8.27244e-09 -1.6745e-07)
(8.97605e-08 -7.67255e-08 -2.56325e-08)
(-7.31846e-07 -9.16993e-07 1.53917e-07)
(2.24402e-08 2.54228e-08 -1.46583e-07)
(-7.79775e-08 5.57603e-08 8.55111e-08)
(1.98671e-08 -9.4333e-08 -8.4217e-08)
(2.43505e-07 1.54038e-07 2.30168e-07)
(-2.06268e-07 3.85085e-07 3.12227e-07)
(-1.42148e-07 -8.72169e-09 -3.52481e-08)
(1.00725e-07 -1.05656e-07 -1.77886e-07)
(-3.29414e-07 2.21291e-07 1.09506e-07)
(-5.90927e-07 3.32983e-07 -2.03827e-07)
(-1.75134e-07 -1.97888e-07 5.74184e-08)
(3.29711e-07 6.01839e-07 6.61057e-08)
(3.71459e-07 -7.56103e-08 1.00738e-07)
(1.70254e-07 5.34326e-07 1.52559e-07)
(1.29388e-07 2.89499e-08 -7.26835e-08)
(-1.49874e-07 1.86721e-07 2.37668e-07)
(2.14107e-07 -2.58887e-07 3.56683e-07)
(-1.52682e-07 -6.55047e-09 -1.15273e-07)
(-2.16767e-07 2.55442e-07 -3.47002e-07)
(-1.82452e-07 -1.25225e-07 1.2029e-07)
(1.75092e-07 -1.05361e-08 1.18823e-07)
(-5.40634e-07 -4.9265e-07 1.54387e-07)
(2.97544e-07 -1.86855e-07 -3.16674e-07)
(1.42363e-08 2.94131e-08 3.63067e-07)
(-2.02432e-07 -6.4483e-08 3.52507e-08)
(2.95902e-07 9.20529e-08 2.23341e-07)
(1.39482e-08 3.33754e-07 2.18626e-07)
(1.19345e-07 7.63886e-08 2.1453e-07)
(5.24141e-07 1.14378e-07 -2.46763e-07)
(-7.5103e-07 3.19713e-07 -1.25601e-07)
(1.78879e-07 1.40142e-07 -2.33726e-07)
(1.59121e-07 4.32854e-08 3.73042e-08)
(-3.34701e-07 9.006e-07 2.31213e-07)
(3.91328e-07 -1.04015e-07 2.32292e-07)
(-1.02917e-07 -1.80184e-07 -3.12872e-08)
(2.91267e-08 -1.38377e-07 -1.47801e-07)
(6.64747e-09 -4.25794e-09 2.10525e-07)
(2.01135e-07 2.00467e-07 -1.92493e-07)
(-1.25771e-07 4.60199e-07 -6.56402e-07)
(-6.05303e-07 -4.4743e-07 -5.63844e-07)
(2.04893e-07 -7.8872e-08 2.63163e-07)
(-2.5087e-07 1.03075e-07 1.24367e-08)
(4.16856e-08 -3.89403e-07 -3.10872e-07)
(-1.77714e-07 -2.14775e-07 -8.61174e-07)
(-2.47284e-07 -7.76609e-08 1.50737e-06)
(2.02727e-07 5.98193e-07 -2.06045e-06)
(-3.35644e-07 -2.34589e-08 1.28655e-06)
(-1.05964e-06 1.36757e-08 1.21559e-06)
(9.20306e-07 -1.24231e-06 -4.56097e-07)
(1.86227e-07 -9.05048e-08 3.9584e-07)
(-3.40034e-07 1.02628e-06 -5.27476e-07)
(7.75288e-08 -9.82997e-08 -3.93762e-07)
(-3.44954e-07 -4.72836e-07 3.19099e-07)
(7.16844e-08 -8.92141e-10 -5.65027e-09)
(7.88558e-08 -1.05301e-07 -1.33458e-08)
(1.00022e-08 -1.17373e-07 7.25741e-08)
(-1.27606e-07 9.56909e-09 1.02704e-07)
(8.35887e-07 -1.494e-08 -8.22803e-08)
(2.09773e-07 -2.02695e-07 -6.31579e-08)
(-3.68778e-07 4.36801e-07 -1.72889e-07)
(3.41658e-07 -2.75588e-07 -2.81403e-07)
(3.21389e-08 -2.08443e-08 -1.31898e-07)
(9.69002e-08 -1.06249e-07 6.04671e-08)
(4.53338e-08 1.71346e-07 -1.25777e-08)
(-7.03224e-08 1.1459e-07 2.26365e-08)
(-1.32361e-07 -4.9098e-08 7.24806e-08)
(5.21711e-08 -9.05036e-08 -1.86435e-07)
(-8.05963e-08 -7.68678e-08 -2.54155e-08)
(3.61924e-08 -1.09282e-07 2.30202e-07)
(8.62499e-08 -1.18251e-07 8.48955e-08)
(-6.70308e-08 6.77959e-08 -1.94532e-07)
(-3.96899e-08 -1.38954e-07 1.27852e-07)
(-2.97817e-08 3.32528e-08 1.62028e-08)
(-9.4079e-08 -5.2648e-09 1.57806e-07)
(-1.51677e-07 -1.855e-07 -5.36368e-07)
(-3.276e-07 -4.43056e-07 -1.25265e-07)
(3.73976e-08 2.34928e-07 1.66486e-07)
(-1.22827e-09 -4.55975e-09 -2.47023e-07)
(2.28481e-08 -1.47652e-07 -1.96246e-07)
(-6.40013e-08 3.85247e-08 2.18541e-07)
(-6.78363e-08 4.84756e-08 7.33615e-08)
(3.20496e-08 -6.54697e-08 -2.02139e-09)
(1.23072e-07 -1.61853e-07 1.52638e-07)
(-3.35104e-07 1.14709e-08 9.31401e-08)
(1.77035e-07 9.14584e-08 -1.21656e-07)
(1.13597e-07 -3.63362e-07 4.62024e-08)
(-5.53047e-08 3.06582e-07 1.85794e-08)
(8.20874e-08 -1.16296e-07 2.60039e-07)
(-8.64936e-08 -1.27564e-07 -1.48481e-07)
(3.46466e-07 2.12229e-07 -2.33351e-08)
(2.25055e-07 -3.00096e-08 -1.03737e-07)
(-8.21402e-07 -3.75268e-07 3.15966e-08)
(-6.88422e-07 -4.01922e-07 2.61795e-08)
(-6.3474e-08 -5.43488e-08 7.78098e-08)
(9.38168e-08 2.18862e-08 -1.93937e-07)
(-2.04308e-07 -1.23907e-07 2.08327e-08)
(1.3031e-08 -2.17439e-08 3.5798e-08)
(4.71001e-08 -3.1911e-08 -9.47355e-08)
(1.60308e-07 -2.62233e-07 2.76976e-08)
(5.15598e-08 -2.55983e-07 -3.13797e-07)
(1.19043e-07 5.02725e-08 3.58498e-07)
(-7.88531e-08 -7.62075e-08 -2.13915e-07)
(-1.90302e-08 2.11572e-07 3.2673e-07)
(7.02942e-07 -5.47674e-07 5.76834e-09)
(9.74087e-08 -5.19623e-07 -5.07875e-08)
(-3.3976e-07 -1.45512e-07 -2.22575e-07)
(-1.01195e-06 3.1795e-07 -1.41599e-08)
(2.84789e-07 8.31865e-08 -2.27635e-07)
(3.60397e-07 9.41024e-08 2.05535e-07)
(-1.8378e-07 -4.70809e-08 -1.29134e-06)
(1.21272e-07 1.46608e-07 3.25692e-07)
(3.57725e-07 -1.0168e-07 1.17565e-07)
(-2.52816e-07 -8.94481e-08 -1.1379e-07)
(3.56316e-07 7.04118e-08 5.4474e-07)
(9.9672e-08 2.49052e-07 -9.34886e-07)
(-5.31299e-08 2.48535e-07 -2.32914e-08)
(5.89611e-08 2.55775e-08 3.12009e-07)
(-3.08398e-07 -4.77414e-07 7.09832e-08)
(6.66937e-07 1.9651e-07 1.2264e-06)
(2.89828e-07 -1.05829e-06 -1.01495e-06)
(4.47343e-07 1.08533e-07 1.60112e-06)
(6.41183e-07 -1.35227e-06 -4.60826e-07)
(-4.7462e-07 -1.84041e-07 -8.9238e-08)
(1.86146e-07 -5.3092e-07 7.7117e-07)
(1.52415e-08 2.45439e-07 -3.77248e-07)
(7.3475e-07 -7.69401e-07 -3.26856e-07)
(-7.0862e-07 3.3836e-07 4.96377e-07)
(-8.94548e-08 7.83098e-08 8.85707e-09)
(-7.96995e-08 4.17466e-08 -6.61361e-08)
(8.66099e-08 -9.47385e-09 -7.35127e-08)
(-3.28392e-07 -1.01591e-08 -7.31033e-09)
(6.51447e-07 5.47631e-07 -8.80609e-08)
(-1.72811e-06 -6.36342e-07 -3.84541e-08)
(7.04572e-08 6.88294e-08 7.54207e-08)
(-3.06307e-08 2.59839e-08 2.74885e-07)
(3.48469e-07 1.08573e-07 4.03954e-07)
(1.79889e-07 4.54891e-07 -1.20243e-07)
(-4.36055e-07 2.14731e-08 3.38643e-07)
(6.58895e-08 1.13038e-07 -6.85846e-08)
(-7.81308e-08 7.67786e-08 9.891e-08)
(-9.63549e-08 -6.4485e-08 1.50485e-08)
(5.19725e-07 -1.57255e-10 -9.80533e-08)
(-4.57622e-08 7.22109e-08 1.07793e-07)
(-1.26837e-07 -7.84653e-08 8.36731e-09)
(4.85412e-08 -1.35192e-07 8.25275e-08)
(-3.2218e-07 -5.31461e-08 -1.33678e-07)
(1.26031e-07 6.52218e-08 3.05126e-08)
(-5.34504e-08 -1.30885e-07 -4.5778e-08)
(9.15556e-08 -6.91422e-08 1.04391e-07)
(-4.36693e-09 -9.83166e-08 -2.0983e-07)
(-1.48788e-06 -1.12771e-06 4.17581e-09)
(-5.00196e-07 -2.25488e-07 2.37031e-07)
(1.28135e-07 -4.49008e-08 1.92971e-07)
(-1.24427e-07 -2.82528e-07 1.34598e-07)
(1.40779e-07 2.67947e-08 6.71143e-08)
(-1.47744e-07 4.76903e-07 1.54657e-09)
(-2.22151e-07 2.49108e-07 -1.21024e-08)
(1.63825e-07 -1.23626e-07 -1.87963e-07)
(4.77586e-08 -6.53784e-08 -4.83645e-08)
(-1.7388e-07 1.34864e-06 -2.26782e-08)
(-3.9535e-09 -5.04935e-07 2.34605e-07)
(-1.547e-07 1.04427e-08 -3.68684e-08)
(1.34185e-07 4.85811e-07 1.04532e-07)
(1.05894e-07 -7.21608e-08 -3.07026e-07)
(-2.92982e-07 -5.01876e-07 1.12957e-07)
(-1.02404e-07 9.01669e-08 6.61268e-07)
(-7.9425e-09 -4.2824e-07 -2.90859e-07)
(2.35895e-07 1.82903e-07 9.41376e-08)
(-8.26723e-08 2.1952e-07 4.24042e-07)
(-2.23598e-07 -6.16991e-08 -2.98225e-07)
(-1.91592e-07 1.10847e-07 -3.73147e-07)
(6.72246e-07 -2.69417e-07 6.09237e-09)
(3.64701e-08 -1.0744e-07 4.96605e-07)
(1.86786e-07 -2.48908e-07 1.09712e-08)
(-2.75926e-07 1.72578e-07 -4.17046e-08)
(-6.71532e-08 -5.9807e-07 -2.11288e-08)
(-2.37768e-07 3.00778e-07 -4.99331e-08)
(-3.02654e-07 3.27926e-07 -7.0186e-08)
(-2.79548e-08 1.16089e-07 -5.6138e-07)
(2.1391e-07 -1.73707e-07 2.28066e-07)
(-1.48491e-07 5.2048e-07 -2.6075e-07)
(-1.86332e-07 1.12093e-08 -2.45163e-07)
(7.14416e-07 4.05484e-07 1.62911e-07)
(3.76668e-07 -8.35491e-07 4.70755e-07)
(-2.48035e-07 -9.33212e-07 -7.6941e-07)
(1.83664e-07 9.98232e-07 3.93614e-07)
(-3.10585e-07 7.42588e-08 -2.55959e-07)
(-2.44115e-07 2.31909e-07 7.9913e-08)
(-1.95762e-08 3.3974e-07 5.52584e-07)
(6.46153e-08 -2.31691e-07 -2.48459e-07)
(-4.29208e-07 4.2741e-07 4.45005e-07)
(-5.26073e-08 2.36754e-07 -5.11766e-07)
(1.34181e-07 -3.25229e-07 1.57249e-08)
(4.46658e-07 7.5775e-08 -2.7747e-07)
(8.19705e-08 -3.70468e-07 -2.41718e-07)
(-2.29206e-07 4.24596e-07 -2.75177e-07)
(7.83797e-08 1.22946e-08 -3.63587e-07)
(-8.61363e-07 9.24436e-07 6.46737e-07)
(-5.87774e-07 4.26729e-07 -2.60709e-07)
(1.06648e-06 -8.20187e-07 1.87911e-06)
(-8.8989e-07 -1.3914e-07 -5.30962e-07)
(-2.5163e-07 5.96088e-07 -1.60011e-07)
(1.91977e-07 -4.35657e-07 -7.73941e-08)
(-2.35978e-07 3.11347e-08 -1.20383e-06)
(-3.64882e-08 4.5676e-08 5.02059e-08)
(2.07445e-07 1.02638e-07 -9.37933e-09)
(1.0812e-07 -2.25649e-08 -4.86003e-08)
(6.39974e-08 -1.66068e-08 -1.01818e-07)
(-3.37001e-08 -8.80487e-08 3.15099e-07)
(-4.09128e-08 -4.6006e-08 -3.00154e-07)
(2.19653e-07 6.86385e-08 -1.92813e-07)
(2.46597e-07 -1.04848e-08 1.47495e-07)
(3.32112e-07 1.54507e-07 -3.32732e-07)
(-2.02012e-07 2.86263e-08 -1.38782e-07)
(-6.71191e-09 -2.28734e-07 7.17447e-08)
(-1.88322e-08 1.2304e-07 1.42907e-09)
(-7.00179e-07 -7.00275e-07 6.53947e-08)
(-3.81093e-08 -2.30868e-07 -1.14274e-07)
(-2.87648e-07 -7.95518e-08 -2.61395e-08)
(-2.05564e-07 -1.14129e-07 -8.20478e-08)
(1.16951e-07 -5.34112e-08 1.2803e-07)
(1.04431e-08 -7.87618e-08 -7.78429e-08)
(5.78823e-08 1.23595e-07 4.24431e-08)
(-1.28413e-08 -3.23024e-08 3.58551e-08)
(1.43954e-09 7.53292e-08 7.1378e-09)
(2.5154e-08 -6.16295e-08 -1.45786e-07)
(2.16769e-07 2.07315e-07 -3.85266e-08)
(2.094e-07 -4.63304e-08 -1.42654e-07)
(1.84025e-08 1.32626e-08 -1.83988e-07)
(-1.4932e-07 1.74888e-08 1.06869e-07)
(-1.0749e-07 -1.61553e-08 -1.01729e-08)
(1.61309e-07 4.19184e-08 -1.16137e-07)
(-3.12979e-07 9.1516e-07 -1.05897e-07)
(-1.23142e-08 -1.90432e-07 3.12476e-08)
(8.47461e-07 -1.0884e-06 2.0852e-08)
(-1.05886e-07 -2.08768e-07 8.21018e-09)
(3.60476e-07 8.71322e-08 2.1862e-07)
(3.55649e-07 -1.21704e-07 -6.31842e-08)
(1.25658e-07 1.14468e-07 -1.52168e-07)
(-3.89011e-07 7.63028e-08 9.88826e-08)
(-1.68896e-07 4.63411e-09 -5.03114e-07)
(-2.41866e-07 -1.12002e-07 -6.31849e-07)
(2.21511e-07 -5.43385e-07 2.07401e-08)
(-1.3979e-06 1.17978e-06 8.95624e-08)
(-5.03835e-08 -1.31037e-07 2.05432e-07)
(-3.61399e-07 7.4139e-08 4.32409e-08)
(-2.99562e-07 3.08653e-08 -1.1192e-06)
(6.50072e-08 -2.06491e-07 -1.30945e-07)
(4.30697e-07 1.73976e-07 -2.19607e-07)
(-3.79747e-07 -7.47756e-08 1.56086e-07)
(2.66547e-07 1.08863e-07 7.00802e-07)
(1.48047e-07 -3.38628e-07 8.41062e-07)
(1.03911e-07 2.55646e-07 2.65988e-07)
(-3.96159e-07 -1.66541e-07 8.92388e-07)
(3.13042e-07 2.63982e-07 6.33091e-07)
(-7.04805e-09 1.17547e-07 5.53383e-08)
(-9.46919e-08 1.05714e-07 -5.87005e-07)
(2.01876e-07 1.68877e-07 -9.40786e-07)
(-9.94168e-07 -3.50266e-08 3.91496e-07)
(-4.69362e-07 -1.36423e-08 2.82223e-07)
(5.21492e-07 3.53608e-07 -3.32096e-07)
(1.72848e-06 2.66863e-07 -2.54227e-07)
(9.98618e-08 -1.21203e-07 1.73749e-07)
(-1.49448e-07 2.01598e-07 1.432e-07)
(-5.53625e-08 -1.55912e-07 1.95618e-07)
(3.04875e-07 3.08487e-07 -7.67369e-08)
(-2.52016e-07 3.71373e-08 1.33067e-06)
(2.90431e-07 1.89142e-08 -2.56472e-07)
(5.71843e-07 3.49309e-07 1.23258e-07)
(-7.31284e-07 -3.78672e-07 -4.48729e-08)
(1.70279e-07 2.10278e-07 2.58454e-08)
(-1.18325e-06 2.3073e-07 -1.58422e-07)
(-4.09894e-07 -1.95231e-08 -6.81069e-07)
(2.31323e-07 5.44294e-07 -3.48823e-08)
(3.72063e-07 2.18352e-07 1.30642e-06)
(-8.02185e-07 -1.32486e-07 -2.68389e-06)
(-4.91887e-07 -1.54424e-07 -1.56049e-06)
(3.07705e-07 -5.4395e-07 5.10097e-06)
(-2.3941e-07 -4.63346e-07 1.58402e-06)
(-4.18342e-07 -1.18024e-08 3.85556e-08)
(-1.26455e-07 -8.99579e-08 6.43159e-08)
(5.06448e-08 2.05087e-08 -1.51579e-07)
(3.69374e-08 -5.27966e-08 1.76355e-07)
(1.86578e-07 -1.5023e-07 2.84379e-07)
(-4.49044e-07 -4.11517e-08 2.35204e-07)
(1.23975e-07 2.4466e-07 8.55683e-08)
(-1.3956e-07 -4.55718e-08 9.43977e-09)
(6.57903e-08 1.4728e-07 -1.82292e-07)
(-1.19536e-08 -7.54511e-07 -1.07663e-07)
(-3.32224e-10 2.25698e-08 6.02828e-08)
(8.2063e-09 -2.11716e-07 9.66221e-08)
(-6.79009e-08 3.40905e-08 -7.02006e-08)
(-5.79912e-09 7.34594e-08 2.67198e-08)
(-2.32443e-08 1.40748e-07 7.45982e-08)
(-1.16841e-09 5.05178e-08 5.81902e-08)
(-1.76859e-07 -1.20967e-07 -8.90494e-08)
(1.87309e-07 -5.48609e-08 -2.56518e-08)
(-2.52293e-07 1.33932e-07 4.0412e-08)
(4.45472e-08 -3.96947e-08 2.25992e-08)
(5.45723e-08 3.67672e-07 -7.74444e-08)
(1.38058e-08 -3.84878e-08 -5.50579e-08)
(-1.82646e-07 -1.10495e-07 -1.5817e-08)
(-1.61866e-08 7.14626e-09 3.64605e-08)
(1.34571e-08 -2.25005e-08 -3.30641e-09)
(-1.4628e-07 -2.2828e-07 4.06646e-08)
(-3.90707e-08 -6.68002e-08 2.30806e-07)
(-1.43055e-07 -7.97852e-08 -2.27167e-07)
(6.10028e-08 -2.37932e-08 9.93751e-09)
(-1.45397e-08 -1.73851e-07 -1.64984e-07)
(6.55681e-07 -6.63935e-08 -2.09346e-07)
(-5.20474e-07 1.23372e-06 3.27886e-07)
(-1.20043e-07 -1.1984e-07 6.70574e-08)
(-7.98504e-07 -5.57555e-07 -3.32218e-07)
(-3.12919e-07 -7.92954e-08 1.66312e-07)
(1.86636e-07 -2.83292e-07 4.60014e-07)
(-2.10793e-08 -3.24631e-08 -3.16812e-07)
(-1.10596e-06 -1.67839e-07 -1.87428e-07)
(2.42375e-07 -1.02783e-07 2.11111e-07)
(6.0655e-07 4.9996e-07 -4.11447e-07)
(-4.14965e-07 4.08428e-07 2.20776e-08)
(2.60284e-07 -2.03281e-07 5.36603e-07)
(-7.17949e-08 1.52717e-07 -2.7446e-07)
(-4.14777e-07 -3.52734e-07 -2.29787e-06)
(4.24672e-07 -7.15719e-07 -6.85825e-07)
(7.73547e-07 -1.99291e-07 9.53515e-08)
(7.96658e-07 -3.79554e-07 1.25302e-06)
(-1.90956e-06 -1.07599e-06 -1.42266e-06)
(5.82751e-08 -4.57775e-08 -7.74024e-07)
(-1.9147e-07 -7.22697e-07 -3.35472e-06)
(-5.2173e-07 -5.85634e-07 2.73409e-07)
(2.39683e-07 3.57188e-07 -4.1461e-07)
(1.48639e-07 -1.16437e-06 4.39761e-07)
(1.19711e-07 5.65431e-07 4.26889e-08)
(6.83164e-07 8.73172e-08 -1.52704e-06)
(7.05639e-08 1.84139e-07 -9.6893e-07)
(-1.08016e-07 6.07557e-08 1.0715e-06)
(1.92583e-07 1.49965e-07 5.93231e-07)
(-4.31291e-07 9.22332e-09 -9.09287e-07)
(-2.38589e-08 -1.96764e-07 -7.10567e-07)
(1.95624e-07 8.07371e-08 -1.10279e-07)
(4.30458e-07 1.05344e-07 4.76594e-07)
(-9.98736e-08 -3.89539e-07 7.02274e-08)
(8.04538e-07 -1.91648e-07 6.15665e-07)
(-2.64112e-07 1.75097e-08 -2.8239e-07)
(7.41819e-07 -8.9835e-08 -5.26406e-07)
(2.13634e-07 -5.09525e-07 2.06843e-09)
(4.07272e-08 -1.278e-07 6.63597e-08)
(-1.03444e-07 7.76743e-07 -4.43604e-07)
(-1.62736e-07 1.59623e-06 1.72375e-07)
(4.07465e-07 4.37086e-07 9.67023e-07)
(1.77294e-08 6.50398e-08 9.26344e-08)
(2.23661e-07 -4.51202e-07 1.12668e-06)
(1.13295e-07 -8.73908e-08 -1.11383e-06)
(-1.31233e-08 5.75119e-09 9.98659e-06)
(8.05454e-07 1.06141e-07 7.4787e-07)
(-1.89378e-07 -3.74757e-07 -3.69876e-06)
(4.16567e-08 2.81721e-08 1.99942e-08)
(7.92466e-08 -5.34791e-09 2.24259e-07)
(1.90632e-07 1.94034e-08 1.1255e-07)
(1.81475e-07 -2.01882e-07 -1.07094e-07)
(-6.01347e-08 1.81312e-07 3.11159e-07)
(-6.3837e-08 -1.71544e-07 -1.62486e-07)
(-7.50848e-08 -7.02883e-08 -1.23846e-07)
(6.02596e-07 -3.22731e-07 4.71627e-07)
(-1.26693e-07 1.45891e-07 -7.18899e-07)
(3.07931e-07 -4.81557e-08 4.55554e-07)
(1.44963e-07 3.65538e-07 1.34737e-07)
(-6.20477e-09 1.14985e-07 3.94406e-08)
(-1.08259e-07 4.44896e-08 -3.00974e-07)
(-8.71833e-08 -7.26069e-08 8.41871e-08)
(-1.65402e-07 -3.46401e-07 1.07045e-07)
(1.77829e-07 1.38347e-07 6.97803e-08)
(1.56363e-07 4.41984e-07 1.24053e-08)
(5.96968e-08 -2.96656e-07 1.96962e-07)
(-1.84591e-07 2.76596e-08 -3.62069e-08)
(-5.02631e-08 -1.7069e-07 4.75876e-08)
(-1.03153e-07 -3.98025e-09 9.54157e-09)
(-5.54939e-07 1.11114e-07 -9.12098e-08)
(-7.16861e-07 -3.70525e-07 1.47862e-07)
(2.49374e-08 -1.26732e-07 5.91041e-08)
(-8.4059e-08 -4.88188e-09 -1.13631e-07)
(6.45121e-08 1.01926e-07 5.7441e-08)
(-1.61306e-07 -1.22936e-08 -1.69684e-07)
(-1.32028e-07 -1.48094e-07 -7.0283e-10)
(3.01013e-07 3.00619e-07 1.00438e-07)
(1.23629e-07 -1.35451e-08 2.89493e-08)
(-9.34293e-08 1.73813e-07 -6.01526e-08)
(-1.29566e-08 2.45434e-07 7.75368e-08)
(3.40441e-08 -1.97682e-07 -9.67696e-08)
(8.64915e-08 -3.21102e-07 2.68735e-07)
(-2.53611e-07 4.71151e-07 7.07377e-07)
(-7.37246e-08 8.58886e-09 -2.0757e-06)
(-1.498e-07 -3.09897e-08 -4.36994e-08)
(3.04221e-08 -4.51306e-07 -3.37327e-06)
(3.44125e-07 -3.65085e-11 7.50324e-08)
(-4.58442e-08 2.88884e-08 7.15845e-07)
(2.96765e-07 2.01007e-07 -2.37879e-07)
(-1.29568e-07 -5.48233e-07 1.26405e-07)
(5.80079e-07 -7.18214e-08 1.54189e-06)
(6.08631e-07 2.13216e-07 1.59357e-05)
(8.92995e-07 -4.04036e-07 1.63036e-05)
(4.86426e-07 -1.1461e-06 -2.84389e-07)
(-4.67191e-07 -5.56621e-09 -3.48504e-06)
(8.99556e-07 -1.82197e-07 4.00607e-07)
(-3.0014e-07 2.29295e-07 5.91662e-07)
(-1.31431e-06 -3.2433e-07 -5.7218e-07)
(-4.20969e-08 6.31137e-07 -1.66359e-07)
(1.61879e-06 9.19595e-08 -4.30366e-07)
(-1.72087e-06 -6.62296e-07 -1.35167e-06)
(-8.8076e-07 7.22822e-08 -8.05291e-07)
(2.62285e-07 2.38061e-07 1.26626e-06)
(1.4228e-07 3.31443e-07 8.1802e-07)
(-2.52045e-07 -2.40409e-07 -7.38744e-07)
(9.7677e-08 -1.76354e-08 8.63381e-07)
(-9.08976e-08 1.81776e-07 2.97422e-07)
(-9.01867e-08 7.45813e-07 2.75977e-07)
(-4.70588e-09 6.06792e-07 -7.89576e-07)
(-1.60048e-07 -1.43808e-06 1.67569e-06)
(3.89797e-08 -8.97075e-08 -8.2705e-07)
(1.60461e-07 -1.48139e-08 6.97071e-07)
(5.20885e-07 3.39261e-07 1.4237e-06)
(-6.41755e-07 -5.91412e-07 1.10002e-07)
(-6.01623e-07 -1.06239e-07 -3.82195e-07)
(1.29354e-07 -1.36381e-09 2.22818e-07)
(-7.37507e-08 -2.65083e-07 6.49588e-08)
(-1.9225e-07 1.32072e-07 -1.27353e-07)
(2.07015e-07 -2.27908e-08 -2.90585e-07)
(-4.62307e-08 1.89054e-07 -1.8109e-07)
(9.45842e-08 -2.69243e-08 -7.59655e-07)
(1.49145e-07 6.50325e-08 1.02159e-08)
(-2.57656e-08 -2.55318e-07 -1.08961e-07)
(8.99431e-07 6.53698e-08 -9.85308e-09)
(1.19355e-07 -3.20347e-08 4.96232e-08)
(1.70668e-07 -6.01894e-08 -1.81048e-07)
(4.78676e-08 -3.38591e-08 5.97483e-07)
(9.73847e-08 1.51648e-07 4.19177e-07)
(-3.07761e-08 -1.34069e-07 2.30249e-06)
(5.0807e-07 -2.58204e-07 -4.54165e-07)
(-6.51267e-07 -1.69081e-07 2.67524e-09)
(1.87367e-07 -7.75677e-09 8.45029e-07)
(-1.71631e-07 7.80526e-08 4.15181e-07)
(-1.50269e-07 1.16513e-07 -1.05357e-06)
(-5.80342e-08 3.30465e-09 -3.12852e-07)
(2.75231e-07 2.06367e-07 -2.39583e-08)
(3.91817e-09 1.63993e-07 -1.60346e-07)
(-2.92499e-07 -3.46581e-07 1.39776e-08)
(2.20036e-07 4.77245e-07 -7.44211e-09)
(1.82074e-07 -5.176e-07 -2.82383e-09)
(1.62299e-07 1.59674e-08 -2.33242e-07)
(-1.0604e-07 2.84765e-08 1.45547e-07)
(3.92921e-07 8.01684e-08 -1.35481e-07)
(-2.57428e-07 -3.0253e-07 -8.16793e-08)
(-8.86843e-08 1.47872e-07 6.43029e-08)
(1.33793e-07 -6.90392e-08 -4.88498e-08)
(-7.9112e-09 1.7774e-07 9.24521e-08)
(7.61996e-08 1.98501e-07 1.46641e-07)
(1.45602e-07 9.59767e-08 1.77889e-07)
(-1.13646e-07 1.59944e-08 -2.27412e-07)
(1.24051e-07 6.02868e-07 1.67695e-07)
(-1.34066e-07 -2.65042e-09 1.14383e-07)
(-1.66106e-07 1.29872e-07 -1.4687e-07)
(-4.90398e-08 3.44221e-08 -1.02615e-07)
(7.96833e-08 3.6142e-08 -2.31008e-08)
(-6.54634e-07 -2.00328e-08 2.09488e-07)
(2.53971e-07 -3.29018e-07 -1.13162e-06)
(4.68495e-07 -4.73436e-07 3.29878e-08)
(-3.80163e-07 -6.68625e-07 -5.44038e-06)
(5.61386e-07 6.61532e-07 -2.48293e-06)
(5.1484e-07 4.15079e-09 6.94992e-07)
(-3.44139e-07 1.82303e-07 -5.6485e-07)
(-8.90439e-08 -5.33422e-07 -9.24576e-07)
(5.2416e-08 -1.02175e-06 -3.53296e-07)
(2.75052e-07 7.87469e-07 -2.69996e-06)
(3.4375e-07 -2.11943e-07 3.42807e-07)
(-1.23919e-06 -1.85608e-07 3.86956e-06)
(-3.4784e-08 -4.76999e-08 1.3567e-06)
(2.5812e-07 4.00183e-07 -1.12997e-06)
(2.94253e-07 1.86918e-07 5.41421e-07)
(4.4206e-07 1.2887e-08 1.0209e-06)
(-3.37364e-07 4.45748e-07 -6.42693e-06)
(3.47043e-08 3.96886e-07 -1.57142e-06)
(-4.57636e-07 5.22281e-07 -7.64111e-06)
(2.4149e-07 6.2103e-09 -1.24269e-06)
(9.81198e-07 2.44086e-07 -2.57864e-07)
(7.24114e-08 6.56461e-09 5.48718e-07)
(-6.19389e-08 -3.51986e-07 1.9455e-07)
(2.55627e-07 -1.02308e-07 -2.77458e-07)
(3.87012e-07 2.43266e-07 5.22377e-07)
(1.26929e-07 7.33288e-09 -2.08494e-07)
(-3.56453e-07 6.05942e-07 1.20149e-06)
(3.15268e-07 -3.5412e-07 -1.53639e-06)
(-6.14714e-07 -5.64604e-07 3.05957e-07)
(-2.33575e-08 4.99414e-07 -3.00359e-08)
(5.94982e-08 6.46233e-07 1.02511e-06)
(-1.1213e-07 4.85901e-07 -7.6588e-07)
(-2.49154e-07 9.20038e-08 -4.09723e-07)
(3.15011e-07 -2.15882e-07 -1.79291e-07)
(-2.48039e-07 -1.9384e-08 1.91473e-07)
(1.25328e-07 2.69728e-07 -5.9629e-07)
(-7.97614e-07 -1.2058e-06 -4.36007e-07)
(4.51592e-07 -1.44367e-07 3.22157e-07)
(1.84776e-08 -3.8189e-07 7.38098e-07)
(1.76512e-07 -2.48452e-07 -1.72861e-07)
(-1.58501e-07 -2.10684e-07 -4.03027e-07)
(3.80541e-07 6.92556e-08 4.8391e-07)
(-9.77694e-08 3.30804e-08 -4.69745e-07)
(1.05648e-07 -5.77961e-08 -8.09891e-09)
(-3.17915e-08 9.19798e-08 1.61743e-07)
(3.82563e-07 8.91169e-08 -3.4378e-07)
(-9.52703e-08 -1.36917e-08 1.0032e-07)
(-2.12676e-07 2.11039e-07 4.06719e-07)
(2.6655e-08 -2.44388e-07 1.79127e-07)
(-7.17104e-08 2.94606e-07 -1.90072e-07)
(-6.63641e-08 -5.73584e-07 -1.3411e-06)
(1.60054e-07 -3.09992e-08 -3.95894e-07)
(-7.26529e-08 4.7824e-09 -1.61503e-09)
(1.14974e-07 -1.36726e-07 3.1407e-07)
(3.78697e-07 1.37091e-07 -6.0977e-08)
(-3.54459e-07 2.06094e-07 3.89875e-08)
(2.38692e-07 -5.54192e-07 1.51959e-07)
(-7.59869e-08 9.39905e-08 -5.89743e-08)
(1.75548e-07 -1.56576e-07 1.84946e-07)
(2.24795e-07 2.36036e-08 -2.15699e-07)
(-1.62618e-07 -7.11565e-07 3.34566e-07)
(1.91613e-07 2.11505e-07 -1.48727e-07)
(1.08591e-07 -1.5531e-07 -2.39404e-08)
(1.40972e-07 -1.30336e-07 5.18304e-08)
(-1.98126e-07 6.19218e-07 -8.00126e-08)
(3.85188e-08 -3.62736e-08 1.04501e-07)
(5.55551e-08 -7.60506e-08 1.43109e-07)
(-2.46109e-07 -1.70353e-07 -1.46532e-07)
(3.96939e-07 -6.9638e-07 1.37386e-07)
(1.38255e-07 -1.08162e-07 -9.45572e-08)
(3.86222e-08 1.023e-07 -9.14184e-08)
(2.2454e-07 -7.0939e-08 -2.39422e-08)
(9.23167e-08 2.37467e-07 7.21158e-08)
(8.03962e-07 -2.0308e-07 1.29715e-06)
(1.70742e-07 -2.28524e-07 -4.61787e-07)
(-1.39998e-07 -1.97592e-07 -3.1514e-07)
(-6.61005e-07 7.20172e-07 -5.68582e-07)
(-1.02435e-07 -8.43522e-08 -1.50235e-06)
(2.34549e-07 -6.01838e-07 9.19932e-08)
(1.09041e-07 -1.43709e-08 3.07402e-07)
(-1.45418e-08 -6.809e-08 -7.22131e-07)
(7.13156e-08 1.19344e-07 5.36912e-07)
(1.95154e-07 6.90589e-08 3.85379e-07)
(1.68596e-07 -7.61546e-08 -3.38025e-08)
(6.42164e-07 -3.23999e-08 1.25066e-06)
(-1.97941e-07 4.40822e-07 -2.80787e-08)
(-2.11617e-08 -2.6368e-08 -1.36489e-07)
(2.91495e-07 -3.58656e-07 -1.66605e-09)
(3.17021e-07 1.53107e-08 1.12906e-06)
(-1.35242e-07 -4.95801e-07 9.63894e-07)
(-8.98283e-09 3.58702e-07 -4.46903e-08)
(-3.71623e-07 -5.50328e-07 -2.16116e-07)
(1.568e-07 2.3705e-07 -2.77469e-07)
(1.18236e-07 4.04165e-07 -5.42565e-07)
(-9.74414e-08 1.36017e-07 -9.17936e-07)
(-8.46405e-07 -3.38932e-07 -7.90372e-06)
(-1.17092e-07 -4.33119e-09 8.83389e-07)
(2.39908e-07 -1.82322e-07 6.83823e-06)
(-1.72797e-07 -4.09086e-07 -2.38012e-06)
(5.23064e-07 -5.57459e-07 -8.33403e-07)
(7.36356e-07 -4.39928e-07 -1.47066e-06)
(5.31862e-08 -7.59086e-07 7.1843e-08)
(3.82118e-07 -6.8577e-07 -7.5559e-07)
(-1.41476e-07 -5.31415e-07 -2.54083e-06)
(6.01052e-07 -1.49264e-08 9.7317e-07)
(5.14095e-08 5.08597e-07 -1.22377e-06)
(-1.37051e-07 -3.07388e-07 -1.13157e-06)
(1.29129e-08 -1.5925e-07 -3.9812e-07)
(2.05407e-07 -3.14898e-08 -1.00725e-07)
(-2.31325e-07 -1.37007e-07 4.93133e-07)
(-2.40711e-07 2.46076e-07 2.22371e-07)
(-1.27792e-07 1.67609e-08 -2.42478e-07)
(-3.15926e-07 -2.46847e-08 -8.50397e-07)
(-7.59095e-07 -4.25253e-07 -3.10722e-07)
(2.58084e-07 -1.66999e-07 2.80631e-08)
(-5.86424e-08 5.06298e-08 3.84327e-07)
(3.4538e-08 1.21429e-07 -1.10307e-07)
(-9.11764e-09 4.94258e-08 -3.37572e-07)
(1.98993e-07 -9.50954e-08 2.17027e-07)
(1.79285e-07 2.66347e-07 -2.71209e-07)
(1.4605e-07 7.84871e-08 2.46463e-07)
(3.70159e-07 -3.0273e-07 -9.09966e-08)
(-1.61431e-07 -7.63737e-08 -5.17767e-07)
(-1.47833e-07 1.04253e-07 -1.95046e-08)
(4.60189e-08 -7.17475e-09 4.32115e-07)
(-6.20469e-08 -1.01488e-07 -2.38302e-07)
(-8.08534e-08 2.33291e-07 -4.52167e-07)
(-6.82043e-07 -2.75133e-07 1.01499e-06)
(-1.95051e-07 -1.99761e-07 6.00548e-07)
(-4.67075e-08 1.57806e-07 -3.97292e-07)
(-3.30993e-07 -1.11373e-07 2.63712e-07)
(5.06806e-10 1.23541e-07 3.12919e-07)
(-1.05289e-08 -6.40623e-09 1.50357e-07)
(-1.57736e-07 6.53271e-08 5.2849e-08)
(9.04077e-09 -5.07981e-08 2.77908e-08)
(-9.40512e-07 1.52724e-06 -1.42178e-07)
(-5.86851e-08 7.74743e-08 -2.2996e-07)
(9.91208e-09 1.44374e-07 3.81259e-08)
(3.95615e-09 2.33043e-08 -1.98159e-07)
(5.78117e-07 -2.03784e-07 -1.63886e-07)
(9.31789e-07 1.22855e-07 2.6505e-07)
(2.02525e-08 3.7778e-07 -9.88543e-08)
(2.81523e-08 -6.54535e-08 -1.38915e-07)
(-1.82289e-07 -9.31557e-08 -1.27877e-07)
(-1.40909e-08 1.5742e-07 4.17254e-07)
(1.75107e-07 -5.60174e-07 -5.13573e-08)
(1.01023e-09 -5.58074e-08 1.29092e-07)
(2.56944e-07 2.7849e-07 2.67883e-08)
(-1.32321e-07 9.26302e-08 -2.73153e-07)
(1.52267e-07 5.13995e-07 2.75648e-07)
(3.52167e-07 4.75924e-07 -3.36486e-07)
(-3.51326e-07 1.27314e-07 -2.43676e-07)
(-9.77254e-08 -6.70235e-07 -1.77203e-07)
(5.43465e-08 1.38432e-07 -2.98186e-07)
(-2.12932e-07 -1.39908e-07 -4.17675e-07)
(6.27635e-07 1.81403e-07 -2.84306e-10)
(-1.50368e-07 2.4163e-08 1.98734e-07)
(-5.05914e-07 -6.20996e-07 -7.29443e-08)
(3.37367e-07 -5.85205e-08 4.61201e-07)
(-2.61214e-07 -3.8583e-09 -3.08878e-07)
(-2.15563e-07 -1.40334e-07 1.12587e-06)
(-1.11247e-07 2.40822e-07 5.3521e-07)
(5.82836e-07 -1.17011e-07 5.94768e-07)
(-5.19983e-07 -2.00532e-07 1.17266e-07)
(1.80427e-07 -1.02591e-08 1.0739e-06)
(9.29053e-08 2.67521e-07 -7.94952e-07)
(4.0603e-07 6.26759e-07 4.43112e-08)
(-6.44137e-08 -2.33592e-07 5.36874e-07)
(-1.64163e-07 4.90278e-07 3.09616e-07)
(-3.83938e-07 2.44217e-07 4.0885e-07)
(1.28109e-06 2.61181e-06 -6.20589e-06)
(1.64186e-06 2.63748e-06 1.33464e-05)
(-3.22645e-07 -4.93856e-07 -1.82245e-06)
(-2.50561e-07 1.9527e-08 1.0748e-06)
(-7.44475e-08 -3.78546e-07 -1.68957e-07)
(-1.23456e-07 1.98821e-07 -1.73261e-06)
(-4.79289e-07 5.68828e-08 -1.15906e-06)
(-2.30895e-09 4.13082e-07 4.17951e-06)
(-2.09663e-07 2.71462e-07 -1.37692e-06)
(2.02234e-07 1.5477e-07 3.01453e-06)
(3.05169e-07 -9.99159e-08 5.81543e-07)
(1.19103e-07 -4.55678e-07 -1.93348e-06)
(1.04974e-07 5.04279e-07 5.05013e-07)
(-4.69344e-07 2.57638e-07 -7.48456e-07)
(-1.04103e-07 -1.48132e-07 1.1742e-08)
(-5.30504e-07 -3.35975e-07 1.9316e-07)