/*--------------------------------*- C++ -*----------------------------------*\
  =========                 |
  \\      /  F ield         | OpenFOAM: The Open Source CFD Toolbox
   \\    /   O peration     | Website:  https://openfoam.org
    \\  /    A nd           | Version:  8
     \\/     M anipulation  |
\*---------------------------------------------------------------------------*/
FoamFile
{
    version     2.0;
    format      ascii;
    class       vectorField;
    location    "0/lagrangian/kinematicCloud";
    object      angularMomentum;
}
// * * * * * * * * * * * * * * * * * * * * * * * * * * * * * * * * * * * * * //


3300
(
(4.67515e-09 2.76681e-09 -6.30536e-11)
(1.70282e-10 -5.85574e-10 -1.53482e-10)
(-1.05934e-09 -9.11382e-12 8.10906e-11)
(1.24821e-09 2.55597e-10 -6.47284e-11)
(-1.45847e-09 -4.0048e-12 7.65344e-11)
(1.31361e-09 1.8352e-10 -2.42575e-09)
(-5.0561e-10 1.32634e-11 -1.35782e-11)
(5.44042e-10 -2.11321e-11 -6.5404e-11)
(-8.01579e-11 -4.18637e-10 4.09157e-11)
(-3.70062e-10 3.42647e-10 -1.20255e-10)
(2.48361e-10 3.15176e-12 1.63636e-10)
(-2.36925e-10 1.9829e-11 -9.96725e-11)
(4.70121e-09 2.00185e-09 2.78139e-12)
(1.75318e-10 1.34154e-11 6.78072e-11)
(-5.16076e-11 -4.87346e-11 -1.25168e-10)
(9.07002e-11 1.77272e-10 1.65748e-10)
(1.54517e-11 -3.92256e-11 -1.86288e-12)
(3.38093e-11 -5.35409e-12 3.73825e-11)
(-5.8921e-11 6.46776e-12 1.31614e-11)
(7.53465e-11 4.20842e-12 -3.45954e-11)
(-3.73301e-10 1.01667e-11 -2.97213e-11)
(3.36976e-10 1.12026e-11 6.99128e-11)
(-3.0126e-10 -8.459e-13 -5.31117e-11)
(-1.29151e-10 -1.07415e-10 -2.45832e-10)
(3.4699e-10 -6.48371e-11 3.79694e-11)
(-2.76177e-10 1.23141e-09 2.50866e-09)
(1.35135e-09 1.03303e-09 -2.30729e-09)
(-2.47181e-09 -1.04547e-09 1.28549e-08)
(4.5717e-10 -1.62259e-10 -2.85559e-09)
(2.63397e-09 7.63845e-10 -2.68021e-09)
(-2.30674e-09 -2.63399e-09 2.62432e-09)
(1.06567e-09 1.35563e-09 -2.59079e-09)
(4.11222e-10 -1.34503e-10 3.04344e-09)
(-4.20008e-10 8.11425e-12 -2.32148e-09)
(2.56211e-12 -5.87507e-12 -6.87766e-13)
(4.43781e-12 -9.36048e-14 -1.21045e-12)
(2.76909e-12 1.34427e-12 -3.48094e-12)
(-9.0506e-12 -1.12349e-11 -6.39444e-13)
(-6.81719e-12 2.09897e-11 -1.39822e-11)
(-3.95251e-12 6.37112e-12 -1.59814e-13)
(4.82883e-10 1.25525e-10 -4.50943e-11)
(-1.26666e-11 2.67918e-11 -2.52674e-11)
(2.17837e-11 -2.1781e-10 2.14438e-11)
(1.55669e-10 5.39127e-11 -3.14406e-12)
(-3.70018e-12 1.02762e-12 8.42711e-12)
(1.2479e-11 2.41217e-12 -7.06783e-12)
(-1.03554e-11 3.59563e-12 8.18393e-13)
(4.45658e-12 -8.7486e-13 -3.63892e-12)
(-1.06608e-11 -3.98975e-13 -6.96866e-12)
(1.05204e-11 5.28438e-12 -1.01977e-11)
(1.67533e-11 -3.86322e-11 8.49128e-11)
(3.90312e-10 6.51232e-11 7.61912e-12)
(4.05902e-09 -7.05835e-11 -1.10887e-10)
(1.29711e-11 1.38395e-11 7.56803e-11)
(-1.92097e-11 5.78804e-11 -4.99919e-12)
(-2.44039e-11 -1.48689e-11 -2.40948e-11)
(9.5035e-12 5.96182e-12 1.17546e-11)
(2.53035e-09 4.20956e-09 2.05454e-10)
(-2.17111e-11 -2.53042e-10 -4.08539e-10)
(3.37578e-11 -2.93231e-11 8.46246e-10)
(-2.72008e-10 -1.02097e-09 -7.36866e-10)
(-2.20524e-10 -2.13366e-09 3.4858e-10)
(1.11734e-09 8.77101e-12 -2.377e-11)
(-1.12114e-09 7.58243e-12 5.80228e-12)
(1.18237e-09 9.16627e-10 6.02091e-11)
(-3.11965e-09 7.1727e-10 -4.58177e-11)
(-5.99085e-10 1.66073e-09 2.27093e-10)
(-4.98084e-10 -2.87755e-09 2.42987e-10)
(7.03953e-10 2.52875e-10 -1.95506e-10)
(-1.37609e-09 -1.68983e-10 -2.30498e-10)
(1.67901e-09 4.44218e-09 -4.28933e-11)
(-9.49479e-11 -2.75927e-11 1.98365e-10)
(5.79366e-11 6.50417e-11 -3.88651e-11)
(-5.7962e-11 -3.52706e-11 2.52725e-11)
(2.32234e-09 1.48459e-10 -2.05318e-11)
(-4.59756e-09 7.52217e-10 -1.99634e-12)
(4.50055e-09 -9.55781e-10 3.45253e-11)
(-6.21312e-09 -1.80924e-09 1.80306e-10)
(1.35652e-09 -5.53774e-10 1.30206e-10)
(-1.46731e-09 1.04387e-09 -1.79342e-10)
(1.88786e-10 -1.74091e-11 -1.99079e-10)
(-1.56308e-10 2.54423e-10 -1.66699e-10)
(-4.94905e-10 -6.63033e-11 -8.46469e-11)
(1.61362e-09 3.57441e-10 -7.17342e-11)
(1.35813e-10 1.65594e-10 7.70259e-12)
(-7.26852e-11 -2.73623e-10 -4.84854e-11)
(-2.6474e-10 1.00794e-10 5.88388e-11)
(3.03209e-10 9.86493e-11 -7.5426e-11)
(-1.34614e-10 -2.52397e-10 1.39594e-10)
(-5.20957e-10 -4.99858e-10 3.38932e-09)
(-1.05429e-10 -4.94484e-10 4.21017e-09)
(2.69804e-10 -4.2043e-10 -5.70676e-10)
(-3.06869e-10 3.54551e-10 -2.07712e-13)
(2.61093e-09 -9.13856e-10 2.74643e-09)
(-2.20724e-09 2.14129e-09 -2.69584e-09)
(1.06361e-09 3.55271e-09 3.58052e-09)
(-9.6294e-10 -2.66772e-10 -3.63187e-09)
(5.72181e-10 -4.3086e-12 4.82148e-09)
(1.8176e-10 -2.6895e-10 2.21735e-09)
(-4.66767e-10 9.72995e-11 -1.88958e-09)
(2.22581e-11 2.20085e-11 -2.6461e-09)
(2.16979e-10 1.26636e-10 2.25915e-09)
(-1.81857e-12 3.93714e-12 1.9009e-08)
(-2.81488e-11 6.43944e-13 -3.14348e-08)
(3.10878e-11 5.29972e-11 1.86446e-08)
(4.05681e-12 -1.35009e-12 -4.62511e-13)
(1.68128e-12 5.68275e-12 -3.02058e-12)
(-4.17612e-12 3.91786e-12 2.51978e-12)
(-2.71406e-12 -5.12256e-12 9.04635e-12)
(1.12575e-12 1.39648e-11 -6.54671e-12)
(-4.28934e-12 -2.5273e-11 -4.11389e-12)
(1.06561e-11 -1.04484e-11 6.56524e-12)
(-5.41747e-12 -1.30062e-11 -3.78644e-12)
(-6.66157e-10 -1.57389e-09 -1.94981e-11)
(3.18707e-10 2.49264e-09 -9.6998e-11)
(-1.72418e-10 9.26004e-11 -6.33557e-12)
(6.45149e-10 3.42529e-10 1.45918e-11)
(2.36084e-09 3.24059e-10 5.86208e-11)
(-6.39334e-12 -6.38175e-12 4.80848e-12)
(4.19088e-09 2.37513e-09 -1.06915e-10)
(2.90051e-12 -5.79093e-12 7.97519e-12)
(2.04596e-11 1.61882e-11 -1.51186e-11)
(-1.60502e-11 -1.20461e-11 1.471e-12)
(-2.18983e-12 3.19855e-11 -4.66391e-11)
(-3.36085e-11 -2.31208e-11 2.78207e-11)
(4.68371e-11 -3.70039e-11 -4.20853e-11)
(-6.68344e-11 -3.65618e-11 8.00523e-11)
(1.26802e-11 -3.76032e-11 -1.75107e-11)
(6.09835e-11 5.21927e-11 5.35075e-12)
(1.25449e-10 7.29774e-11 -1.73776e-10)
(5.88411e-10 1.98321e-09 -4.48621e-10)
(-2.46906e-09 3.77958e-11 -1.71037e-10)
(2.69314e-09 9.31292e-10 3.92804e-10)
(-2.52201e-09 -4.9009e-10 -7.07328e-10)
(2.14397e-09 -1.7213e-11 -6.78751e-11)
(-2.17859e-09 1.09621e-09 -3.2729e-11)
(1.32713e-09 -1.64497e-09 -2.79635e-10)
(4.13657e-11 -7.0405e-11 -9.32713e-11)
(-6.35437e-10 -1.00984e-09 -1.47205e-10)
(4.27966e-09 1.86337e-09 2.8378e-11)
(-3.53582e-09 1.67891e-09 5.57556e-11)
(6.20329e-10 2.2563e-10 1.32508e-10)
(3.10522e-09 7.91322e-10 -4.5474e-11)
(-2.91448e-09 -8.65338e-10 1.33706e-10)
(2.86844e-09 -1.48086e-09 -2.01529e-10)
(-5.53102e-11 -3.31041e-11 -1.06702e-10)
(2.07246e-10 -1.47903e-11 2.34533e-11)
(-2.15297e-10 -2.42236e-11 -4.68412e-11)
(2.27493e-10 1.71312e-11 3.91567e-11)
(-1.8761e-09 1.76821e-09 1.66783e-11)
(1.43949e-09 -1.2879e-09 -1.04695e-10)
(6.42856e-10 4.12872e-09 -4.5918e-11)
(9.32111e-10 -5.27211e-10 -3.9592e-11)
(-1.92227e-10 1.44911e-09 -1.99524e-10)
(1.17002e-09 -1.25988e-09 2.33485e-10)
(-2.44366e-10 7.54224e-13 1.08484e-10)
(5.29159e-10 -2.13778e-10 -2.72811e-11)
(2.94483e-10 8.91168e-10 1.66334e-12)
(-1.07316e-09 3.66331e-10 4.55488e-11)
(7.01021e-10 -2.77191e-11 -6.77486e-11)
(-6.95754e-10 8.94342e-10 -1.15678e-10)
(5.0644e-10 2.41081e-10 -6.50432e-11)
(-3.84081e-10 -1.95236e-10 9.03039e-11)
(1.69174e-10 3.33112e-10 8.56688e-11)
(1.06445e-10 -7.68229e-11 -4.72537e-11)
(-2.07111e-10 -2.4179e-10 5.09639e-11)
(-1.88338e-12 -1.91347e-10 2.84278e-10)
(1.18262e-10 -4.59602e-10 1.37561e-10)
(2.19193e-10 -6.56024e-11 1.85899e-10)
(4.98225e-10 -5.90874e-10 1.64108e-10)
(-1.68986e-10 9.75753e-10 -8.02405e-11)
(2.62234e-09 -1.88777e-09 2.94828e-09)
(-1.05623e-09 -2.34696e-10 3.04518e-09)
(1.42537e-09 -6.49897e-10 -3.10575e-09)
(-4.93784e-10 -4.90066e-11 2.89742e-09)
(-1.80683e-10 1.47092e-11 2.45561e-09)
(7.36171e-12 9.52405e-12 1.31695e-12)
(-2.75069e-12 -1.22683e-12 -5.5262e-13)
(-1.92341e-12 9.42737e-13 -2.13106e-12)
(4.13235e-12 3.1273e-12 -1.91798e-12)
(-2.78845e-12 -9.54798e-12 -7.71875e-12)
(3.28267e-12 -1.22468e-12 5.223e-12)
(3.58068e-12 2.16313e-12 7.50732e-12)
(-3.22483e-12 -4.49753e-11 -8.45797e-12)
(-9.47043e-11 -3.57176e-11 1.73415e-11)
(6.06512e-11 8.80567e-11 -1.39004e-11)
(-1.03821e-10 -3.54926e-11 -1.35062e-11)
(-3.45733e-11 -1.04323e-11 -8.13163e-13)
(6.86431e-11 -5.18776e-11 7.49337e-12)
(1.83214e-09 2.98642e-10 -3.8725e-11)
(-1.84786e-09 -2.50092e-09 8.66835e-11)
(5.74409e-10 4.86449e-09 -8.43791e-11)
(2.05528e-10 2.55054e-11 6.00276e-11)
(-1.49616e-11 1.82815e-11 -1.22935e-10)
(-1.41743e-11 5.47727e-11 4.31157e-11)
(1.77537e-11 9.16781e-12 9.28908e-12)
(1.59809e-11 5.16697e-13 -3.5881e-11)
(-3.87725e-11 4.72926e-11 4.69904e-11)
(1.55692e-12 -5.13927e-12 -1.15578e-10)
(-5.34617e-11 -1.11436e-11 -6.96863e-11)
(1.00911e-10 9.69405e-11 1.32195e-10)
(3.87967e-09 -5.55371e-09 -2.13614e-10)
(2.76304e-10 9.85261e-11 4.92618e-10)
(-3.07115e-10 -3.22964e-10 -2.60796e-10)
(1.82462e-10 -2.09354e-10 4.7709e-12)
(-5.23582e-11 1.53534e-12 4.14501e-11)
(1.62272e-10 1.88223e-10 -1.6699e-11)
(1.15515e-10 -3.78388e-11 1.55114e-10)
(-1.14399e-10 4.11876e-12 3.09491e-12)
(-2.43643e-09 4.25691e-09 -6.93478e-11)
(3.28539e-11 -1.41668e-09 -1.15601e-09)
(5.75067e-10 2.21498e-09 1.50703e-09)
(5.07179e-10 -2.67847e-09 -1.18122e-10)
(-1.48358e-10 -5.89463e-12 5.52739e-11)
(1.11051e-10 1.94045e-12 2.93125e-11)
(8.19903e-10 -3.30383e-10 9.96216e-11)
(-9.47288e-11 6.29911e-11 -8.17864e-11)
(1.58923e-11 -2.49965e-11 1.16771e-10)
(-6.8842e-12 1.26236e-10 -1.44249e-10)
(7.85359e-11 -5.17918e-11 1.27527e-10)
(-1.0966e-10 1.30784e-10 8.67916e-11)
(-6.107e-10 -2.75933e-09 4.669e-11)
(4.28843e-10 -8.48707e-10 -1.75505e-10)
(-4.57719e-10 6.2111e-10 -2.91036e-11)
(-4.0027e-09 -2.06885e-09 1.4105e-10)
(4.06456e-09 2.16202e-09 -1.6752e-10)
(1.57528e-10 3.45462e-12 1.59343e-11)
(-6.5239e-11 6.00427e-11 1.46726e-11)
(-2.82042e-12 6.27105e-12 -5.39159e-11)
(3.37355e-11 -3.9097e-11 2.31908e-11)
(-1.1986e-10 -1.1202e-10 2.4957e-11)
(-4.60843e-10 -4.79345e-10 -1.21047e-10)
(2.52381e-11 -1.28759e-10 3.13393e-11)
(-1.13367e-10 1.94645e-10 -2.73888e-11)
(1.70588e-10 -3.9476e-10 4.71377e-11)
(3.01323e-10 1.86201e-11 -2.61213e-11)
(-1.78009e-10 -1.46543e-10 -7.56596e-11)
(-2.80151e-10 9.93606e-10 -3.8883e-10)
(-7.60654e-11 5.04334e-10 -1.05157e-10)
(7.01684e-10 4.58831e-10 9.35146e-11)
(-1.0787e-09 3.81687e-10 -3.8749e-10)
(5.4776e-10 6.35535e-10 2.53918e-10)
(4.40472e-10 -1.51373e-09 6.58458e-10)
(-2.163e-10 -4.83527e-10 4.62556e-10)
(4.87456e-10 6.36969e-10 -2.71342e-09)
(4.3155e-10 5.1645e-10 -6.86465e-10)
(2.20486e-11 -2.30146e-10 -1.2996e-09)
(3.41116e-12 3.4315e-12 -1.19237e-14)
(-5.38672e-12 -2.12103e-12 -3.48635e-12)
(-6.44359e-12 -3.82966e-12 -3.95426e-12)
(-9.42587e-11 3.04318e-10 -3.16073e-09)
(-2.56763e-11 -2.41757e-11 -1.5785e-11)
(-2.20525e-11 9.45742e-12 -1.53507e-12)
(6.14264e-11 5.52892e-11 1.83545e-11)
(8.08749e-12 -5.7555e-11 -3.20127e-11)
(-8.57575e-12 1.47421e-10 2.74755e-11)
(-4.62267e-11 -2.34095e-12 -1.13836e-11)
(-2.6159e-11 -2.35763e-11 2.59049e-11)
(2.76465e-11 7.30925e-12 8.07111e-12)
(1.22407e-10 1.52455e-09 -2.31541e-11)
(5.93569e-11 2.61676e-11 1.15729e-11)
(-8.23942e-12 1.34371e-11 -1.36294e-11)
(-8.65574e-12 4.69705e-11 9.96724e-12)
(4.67587e-11 -1.03864e-10 4.85138e-11)
(3.48064e-11 3.58265e-11 -3.20207e-11)
(-4.07043e-11 -2.26325e-11 6.36882e-11)
(-7.25759e-10 3.97965e-10 -2.21983e-10)
(-4.70409e-11 1.83152e-11 2.49347e-12)
(-1.17713e-11 6.38323e-11 -3.56998e-11)
(7.84749e-11 -2.78595e-11 -7.48922e-12)
(-6.80887e-11 6.57465e-11 -2.4485e-11)
(4.76436e-11 -6.98918e-12 9.61628e-12)
(-4.13472e-09 5.51497e-09 -5.16076e-11)
(1.30774e-10 4.36509e-10 2.30335e-10)
(2.06677e-09 -1.09494e-09 9.38201e-11)
(2.17142e-12 1.37237e-10 -4.36262e-11)
(-2.88641e-10 -8.61154e-11 -1.20046e-10)
(4.64113e-11 1.05242e-10 4.9724e-10)
(6.775e-12 2.80727e-11 1.47312e-10)
(-5.75739e-10 -3.5407e-10 -3.00823e-10)
(-2.4752e-10 -5.87291e-10 1.11591e-11)
(-2.99239e-10 4.75356e-10 -1.27753e-10)
(1.55036e-09 3.78176e-10 1.60231e-10)
(-4.62982e-09 3.17772e-09 -2.83205e-10)
(9.44137e-11 1.02938e-11 -3.33234e-11)
(-9.22479e-11 1.93187e-12 -1.9993e-11)
(6.84828e-11 -5.35345e-11 2.22715e-11)
(-8.54836e-14 -1.89003e-11 -4.57071e-11)
(-8.13845e-12 -7.51711e-11 6.66691e-11)
(8.28936e-11 -1.17578e-12 -1.03266e-10)
(2.781e-11 -1.65076e-10 1.28376e-10)
(2.82732e-10 1.05962e-09 7.82799e-11)
(-9.54001e-10 9.32357e-10 1.184e-10)
(9.73032e-10 -8.84166e-10 -1.36625e-10)
(-5.6783e-11 -9.12099e-10 6.59818e-11)
(1.49754e-10 -7.83004e-11 -7.84388e-11)
(-1.21701e-10 -7.15571e-11 5.07209e-11)
(5.66078e-11 -2.70314e-11 2.4979e-12)
(-5.01931e-11 -1.45947e-10 4.04346e-12)
(1.04639e-10 1.73768e-11 -2.52841e-11)
(1.24264e-09 -2.58123e-09 1.32002e-10)
(7.11749e-11 3.81973e-11 5.6286e-11)
(-3.32505e-11 8.79465e-12 2.23807e-10)
(-8.26642e-11 7.25216e-11 6.57804e-11)
(-5.34207e-11 -1.52763e-10 2.79438e-11)
(-9.66795e-11 4.52959e-11 -1.06559e-10)
(2.35876e-10 -1.2414e-10 -6.33827e-11)
(2.99148e-10 -1.0419e-09 -1.04409e-10)
(-5.40037e-10 -3.92256e-10 -2.46316e-12)
(1.09872e-10 -2.57787e-10 -3.30333e-11)
(-5.46091e-11 3.70565e-10 -1.5736e-10)
(5.96989e-10 -1.37316e-09 3.33534e-10)
(-7.11504e-11 1.69342e-09 3.90762e-10)
(-6.66976e-10 6.73024e-10 -2.12833e-10)
(4.51834e-11 -4.0319e-10 7.36929e-10)
(-7.77674e-11 -2.40542e-11 3.1646e-10)
(3.32317e-10 -3.1059e-11 1.57563e-10)
(-1.48256e-10 -2.70292e-11 1.48108e-09)
(1.60594e-10 1.88785e-10 7.80517e-11)
(5.12435e-11 -1.99209e-10 -2.9535e-10)
(-3.42764e-12 -3.26959e-12 -3.89698e-12)
(1.82928e-12 -3.3437e-12 5.70251e-12)
(8.06957e-12 3.76107e-12 2.19025e-12)
(-1.10497e-11 -1.20624e-11 -7.66759e-12)
(1.08025e-11 1.31863e-11 2.467e-11)
(5.21552e-13 5.43606e-12 1.96058e-11)
(2.00492e-12 -1.77472e-11 -7.70223e-12)
(-3.87791e-12 1.15755e-11 6.70987e-12)
(5.18711e-11 -1.15845e-10 -3.68521e-12)
(-1.42006e-12 -6.69614e-11 -8.63957e-12)
(1.52392e-12 -6.95717e-12 4.52003e-12)
(-2.49695e-11 4.50928e-12 1.20549e-11)
(2.24416e-11 -1.51603e-13 -5.70752e-12)
(-2.57089e-11 -6.28926e-12 -5.55979e-12)
(1.24823e-11 4.24137e-11 -1.93382e-11)
(2.79316e-11 -1.11789e-11 -5.55169e-12)
(-2.80529e-11 -1.27237e-11 4.39059e-11)
(2.95146e-11 4.41788e-11 5.18977e-12)
(2.99901e-11 -4.869e-11 -3.29067e-11)
(-9.32414e-12 -3.89045e-11 8.80861e-11)
(-1.03196e-12 -1.61846e-10 4.32248e-11)
(-3.09893e-10 -1.60885e-11 1.66806e-11)
(4.20285e-10 -7.31752e-10 -5.12371e-11)
(-4.19588e-10 -2.48143e-10 -8.59534e-12)
(7.27609e-10 9.10048e-10 2.56216e-10)
(-6.27692e-12 7.9824e-12 -2.32398e-11)
(1.08069e-10 -2.33515e-10 9.83963e-11)
(5.06925e-10 1.11166e-10 9.80055e-11)
(4.33014e-11 -8.99275e-11 -1.65621e-10)
(-3.8826e-11 -9.25078e-11 8.30945e-11)
(9.20493e-12 -7.30693e-12 -1.14064e-10)
(3.24785e-11 4.45051e-11 7.90412e-11)
(1.75883e-11 -2.90872e-11 2.47764e-10)
(-3.66406e-10 9.64727e-10 -1.86883e-10)
(4.81849e-10 3.88538e-09 -4.7129e-12)
(-2.2018e-09 1.40775e-10 2.03613e-10)
(-6.63034e-11 2.60409e-11 7.07299e-13)
(-1.05094e-11 5.09008e-11 2.6573e-11)
(-4.10394e-11 1.61043e-11 -5.88612e-12)
(2.16341e-10 5.39781e-12 -1.05535e-11)
(1.682e-10 8.60994e-11 -1.48191e-11)
(-1.64365e-10 4.71938e-11 -3.56375e-11)
(9.43621e-11 4.84656e-11 7.24952e-11)
(1.57257e-11 -1.53061e-10 1.76292e-10)
(-8.47984e-11 2.14434e-11 -9.48798e-11)
(-5.08269e-10 1.00288e-09 4.06904e-11)
(3.83502e-11 3.67573e-11 1.79297e-11)
(-7.77782e-11 8.5837e-11 -3.70983e-11)
(-6.76108e-11 1.60148e-11 -2.50473e-11)
(5.79731e-11 6.14365e-13 5.46272e-11)
(-7.26497e-11 7.41853e-11 -2.45822e-11)
(-9.69582e-11 7.12399e-11 -5.40358e-11)
(3.41693e-10 8.13309e-11 8.30513e-11)
(-1.5228e-11 -4.60014e-11 -1.01329e-10)
(-2.46384e-11 9.64825e-12 -1.23113e-11)
(3.37939e-11 2.22771e-11 9.9429e-11)
(5.34866e-11 1.09453e-10 1.46947e-10)
(-2.41154e-10 -4.24215e-11 -4.92291e-10)
(3.5447e-11 8.79021e-10 1.21769e-10)
(-2.24998e-10 5.20872e-10 9.09439e-11)
(1.95231e-10 -5.5398e-10 -5.68347e-11)
(6.51997e-11 2.35424e-10 -1.43523e-11)
(-3.16262e-10 -5.08188e-10 2.07661e-11)
(-4.00321e-10 -5.70094e-10 -1.14106e-10)
(1.26309e-10 -1.26597e-10 1.08036e-09)
(4.70997e-10 -1.25326e-10 -4.42373e-10)
(-7.83504e-11 1.88062e-10 9.07821e-10)
(-4.63928e-11 -5.93227e-11 8.48256e-10)
(6.86542e-11 1.25381e-11 2.99881e-09)
(-1.61519e-10 -1.71077e-10 3.57109e-11)
(8.9746e-12 2.54863e-11 -1.96545e-11)
(-1.42494e-10 -6.02609e-11 2.29947e-11)
(-1.00252e-10 6.15881e-10 -2.73915e-10)
(-1.36686e-12 -6.95221e-13 6.60192e-12)
(-4.9448e-12 3.26657e-12 -4.65457e-12)
(-2.66899e-09 2.26806e-09 7.33736e-11)
(4.24448e-12 -6.2056e-12 1.6103e-11)
(1.33019e-12 2.01172e-12 -1.94992e-11)
(2.52153e-10 1.24577e-10 1.1517e-11)
(-5.63532e-11 -3.94112e-11 -2.17184e-11)
(-3.79296e-09 -1.71234e-09 6.96299e-11)
(-3.29275e-12 1.63052e-11 -1.85547e-12)
(-1.23219e-11 -7.12368e-12 7.07281e-12)
(1.48485e-11 -1.96826e-12 -7.92869e-12)
(2.51299e-12 -3.34549e-12 1.38986e-11)
(-1.24349e-11 -1.46696e-11 -1.23384e-11)
(-1.16534e-12 1.59166e-11 -3.67208e-12)
(2.08601e-11 1.78558e-11 -8.51702e-12)
(9.36068e-12 -1.57068e-11 -7.53704e-12)
(-4.9301e-10 2.79931e-10 7.84106e-11)
(1.13945e-09 4.63876e-09 -1.0951e-10)
(1.70523e-10 2.66943e-10 -4.8705e-11)
(-4.13068e-11 7.40241e-11 1.13446e-11)
(6.08141e-12 -9.85623e-11 -9.64246e-12)
(1.67314e-11 2.41161e-11 -1.45376e-11)
(-1.61204e-12 -2.14131e-12 3.01042e-12)
(4.60351e-11 3.55104e-11 1.25143e-11)
(-4.59041e-11 -2.57344e-11 2.21503e-11)
(-1.30818e-10 1.84532e-10 -5.20747e-11)
(1.25712e-10 9.45814e-11 1.54351e-10)
(3.83319e-12 1.36535e-10 -1.0419e-10)
(-9.68505e-11 3.79927e-11 8.41552e-12)
(7.88565e-11 -1.17872e-10 -1.60353e-10)
(9.95361e-10 -2.22143e-09 4.24536e-11)
(3.5185e-10 -9.42411e-10 3.30929e-11)
(-3.95099e-10 -1.05307e-10 -6.23254e-11)
(8.55082e-10 -2.27145e-09 2.99677e-12)
(-1.55333e-11 -2.53881e-11 -9.67265e-12)
(9.77374e-11 -6.27063e-11 -3.63821e-11)
(3.5084e-12 -3.45797e-12 -5.00479e-12)
(3.42128e-12 -1.58983e-11 1.55947e-11)
(-6.16521e-11 -3.47312e-11 -3.05977e-11)
(9.23339e-11 -1.16527e-10 6.56901e-11)
(4.69388e-11 -5.40574e-11 -1.06967e-10)
(6.06623e-11 4.17484e-11 5.94768e-11)
(-2.82207e-11 -5.8535e-11 1.83109e-12)
(6.00569e-11 -2.18018e-11 4.53971e-11)
(-6.07891e-11 -4.02481e-12 -5.08973e-11)
(9.44374e-11 -8.77569e-11 -2.70039e-12)
(-8.43717e-11 1.11824e-11 -2.23552e-11)
(4.31181e-11 -6.70948e-11 6.67661e-11)
(-7.09281e-12 1.42804e-12 -6.08045e-11)
(3.38355e-12 -6.91471e-11 7.26927e-11)
(2.94601e-11 -3.58132e-11 3.96241e-11)
(-3.33736e-11 5.56368e-11 -1.0307e-10)
(2.68971e-12 -1.64678e-11 1.26131e-10)
(3.62222e-11 -5.93705e-11 -1.52759e-10)
(5.45106e-11 8.27938e-12 2.65547e-10)
(-1.37374e-10 -1.62767e-11 -4.25617e-10)
(2.15434e-10 -5.58217e-10 -1.40014e-10)
(-1.0354e-10 3.36114e-10 3.56443e-10)
(1.5048e-10 1.26173e-09 -1.24602e-10)
(-8.76294e-10 -3.26543e-10 5.7301e-11)
(8.97632e-10 -2.79118e-11 -1.3482e-11)
(-1.00517e-09 -7.06176e-10 -2.10128e-10)
(-9.8296e-11 1.17251e-09 1.65526e-10)
(3.08696e-10 -2.24387e-11 -9.05444e-10)
(-6.90665e-11 -5.33284e-11 1.70433e-10)
(4.36697e-11 -3.17597e-11 1.46248e-11)
(3.437e-11 2.04625e-11 -1.25047e-11)
(8.99683e-11 1.73477e-10 -2.91744e-12)
(-8.02349e-11 2.41333e-10 -2.22033e-11)
(6.87733e-09 2.16844e-09 1.00728e-10)
(3.7122e-12 -1.36322e-11 1.83044e-11)
(-3.17197e-11 -2.4553e-10 -6.62425e-11)
(4.90037e-10 7.29248e-12 -5.82989e-12)
(-1.61266e-13 -4.4226e-12 -1.87192e-12)
(-4.63356e-12 3.40532e-13 3.80502e-12)
(2.93339e-12 -2.33354e-12 -2.52682e-12)
(1.01346e-12 1.06759e-11 1.42743e-11)
(-9.67137e-12 -9.76553e-13 -2.12945e-11)
(1.18187e-11 1.01128e-11 1.32397e-11)
(7.2228e-13 -2.6923e-12 -1.05501e-11)
(-9.58789e-12 -5.1236e-12 6.79692e-12)
(-1.12904e-11 1.60087e-11 -8.00489e-12)
(2.60098e-11 3.17401e-11 1.56138e-11)
(-1.08624e-09 2.06213e-10 1.61191e-11)
(-1.8443e-11 2.22467e-11 2.69401e-11)
(1.26666e-09 2.09393e-09 -8.60311e-12)
(-6.91038e-10 -8.44381e-10 1.67173e-11)
(7.47836e-10 7.79617e-10 2.84558e-11)
(-6.88243e-10 4.21491e-11 3.39993e-12)
(1.92628e-09 -2.04777e-09 -5.1119e-11)
(3.28355e-11 -2.42004e-11 -1.09268e-11)
(-5.54354e-11 -6.73477e-11 -3.15146e-12)
(8.08994e-11 1.22681e-10 8.16832e-12)
(-5.7542e-11 -2.241e-11 -8.55432e-12)
(1.41689e-12 -4.50829e-11 -5.39906e-12)
(5.3452e-12 2.9834e-11 1.99557e-11)
(8.66145e-12 -4.33569e-11 -2.88947e-11)
(-4.95588e-11 4.56223e-11 1.05386e-10)
(4.83902e-11 -7.01918e-11 -7.96876e-11)
(1.92282e-11 -6.23797e-11 1.88975e-11)
(3.16614e-11 8.62978e-11 -8.20456e-11)
(-2.07647e-11 -5.81598e-11 5.58111e-11)
(-1.51069e-09 1.73442e-09 -7.45548e-11)
(2.30542e-09 -2.04629e-10 -1.29817e-11)
(-2.2324e-09 1.39948e-09 -3.17712e-11)
(-8.38542e-11 4.9114e-11 5.82133e-12)
(-3.67765e-11 3.44967e-11 1.11002e-11)
(7.93394e-11 -1.43911e-11 2.29147e-11)
(-9.29133e-11 -2.28277e-11 -2.22385e-11)
(1.33113e-10 -4.01106e-11 3.65607e-11)
(1.03467e-10 -5.13117e-10 -3.93899e-11)
(-8.14357e-11 5.94992e-11 6.26917e-11)
(7.35639e-11 -8.10635e-11 -6.30728e-12)
(-1.04631e-10 1.68532e-10 -4.33012e-12)
(3.39571e-11 6.29174e-11 3.91846e-11)
(-6.91373e-11 3.98075e-12 -5.23234e-11)
(4.60213e-11 6.56477e-11 2.03846e-11)
(-1.59971e-11 -3.13767e-11 -1.52785e-11)
(-5.5362e-11 -5.02819e-11 3.605e-11)
(4.53487e-12 1.17344e-10 -5.34277e-11)
(8.00592e-11 -6.29442e-11 3.86202e-11)
(-1.64112e-10 8.66234e-11 -4.18534e-11)
(9.59945e-12 -2.68956e-11 3.65591e-11)
(-1.171e-11 -1.07196e-11 4.20376e-11)
(2.41331e-11 6.66972e-11 -1.87039e-10)
(8.54742e-11 -5.90199e-11 1.99002e-11)
(-1.3433e-10 8.9572e-11 8.74958e-11)
(-9.53261e-11 1.6718e-10 2.15934e-10)
(5.26993e-10 9.58995e-11 -3.62062e-10)
(1.37173e-09 -2.47018e-09 2.30784e-10)
(1.78761e-12 -1.67287e-10 -1.06907e-10)
(1.14459e-09 3.83612e-10 1.09443e-10)
(-5.96119e-10 3.23132e-10 -9.68144e-11)
(-8.15189e-10 5.80451e-11 -1.024e-10)
(1.0027e-09 4.21333e-11 -2.97953e-11)
(-1.72545e-10 -1.64238e-10 -1.6456e-10)
(-8.48624e-11 -7.51269e-11 7.4889e-10)
(7.67731e-11 1.0846e-10 -1.93372e-11)
(-1.42078e-10 -5.15128e-11 9.03449e-14)
(2.36139e-10 -3.25579e-10 2.38652e-12)
(-2.48285e-11 -1.00351e-11 5.45098e-11)
(1.37934e-11 1.98118e-11 -4.81889e-11)
(-1.58733e-11 6.82417e-12 -1.05367e-11)
(2.61484e-11 -5.29458e-11 8.775e-12)
(6.51194e-12 5.76588e-12 -5.9286e-12)
(-5.96269e-12 -7.83249e-12 9.06402e-12)
(9.04396e-12 2.80985e-14 1.02924e-12)
(6.27684e-12 -3.26298e-12 8.7689e-14)
(1.13489e-11 -2.52024e-11 7.68987e-12)
(-1.33321e-11 5.70756e-11 5.75949e-12)
(2.0853e-11 1.01727e-11 -1.36601e-11)
(-2.00546e-11 -2.6668e-12 2.64038e-12)
(1.71519e-11 -9.94797e-12 7.50951e-12)
(-2.76667e-10 1.72723e-11 -4.45404e-11)
(-8.97003e-12 -4.18917e-12 -5.07448e-12)
(6.94084e-12 -1.31752e-11 -1.0649e-11)
(4.91331e-10 9.14779e-10 -3.7877e-11)
(4.02013e-11 -1.04955e-10 2.64119e-11)
(-2.06706e-11 3.83529e-11 -8.00637e-12)
(9.54744e-12 -6.54326e-12 1.86291e-11)
(-1.07229e-09 2.64734e-09 -7.35915e-11)
(-1.16238e-09 3.18186e-09 -1.36728e-10)
(-1.12488e-10 2.9639e-11 -4.88472e-12)
(1.18046e-10 -5.38602e-11 -4.10893e-11)
(-5.43368e-11 9.77545e-11 6.04913e-11)
(7.27055e-12 3.32393e-11 9.91201e-12)
(-1.69355e-11 -2.47802e-11 -6.53275e-12)
(7.82347e-13 5.68906e-11 2.0627e-12)
(-3.72949e-11 2.67869e-11 1.18452e-10)
(4.1516e-11 -1.9541e-11 -8.34389e-11)
(-7.24496e-11 2.16607e-11 1.82868e-11)
(9.47736e-11 -2.93253e-12 -5.22496e-11)
(-5.38132e-11 8.38963e-12 6.87683e-11)
(-1.22724e-11 5.27133e-11 -6.18849e-11)
(5.61305e-11 -7.64617e-12 3.03192e-11)
(-3.7168e-11 -4.68672e-11 -2.53215e-11)
(6.73059e-11 -5.07146e-11 -2.56749e-11)
(-7.03739e-11 1.29078e-12 -2.22612e-11)
(1.50788e-11 -4.78884e-11 1.33654e-12)
(1.02329e-11 1.27526e-11 9.16409e-12)
(-1.45934e-11 1.986e-12 -1.82184e-11)
(6.57039e-12 5.80898e-12 4.95924e-11)
(2.94253e-11 -1.07969e-10 -2.97339e-11)
(-1.07405e-11 1.10804e-10 6.77792e-12)
(1.98194e-11 -9.63784e-11 8.02327e-10)
(9.2087e-11 -8.26425e-11 3.95978e-12)
(-8.75079e-12 -4.13334e-11 7.55004e-12)
(5.41209e-11 -1.27851e-11 -1.63249e-12)
(-1.57195e-11 5.18101e-11 2.502e-11)
(-7.98517e-12 -8.42973e-11 -7.86398e-12)
(3.06053e-11 1.1326e-11 -5.14332e-11)
(-1.02855e-11 -9.90604e-11 1.19075e-11)
(2.09397e-11 -9.45672e-11 -1.36545e-11)
(-3.128e-11 1.24703e-10 7.84733e-11)
(-3.70952e-11 -5.21713e-12 1.91917e-11)
(1.8787e-11 6.05062e-12 -9.7809e-11)
(-2.58157e-10 -2.65507e-10 -3.33403e-11)
(2.4261e-10 4.83095e-10 1.80203e-10)
(-2.77378e-10 -6.05949e-10 -2.25842e-10)
(-1.07368e-10 2.39358e-10 -4.89946e-10)
(-1.14304e-09 2.65568e-09 -3.18653e-10)
(-2.97588e-10 6.41837e-10 1.49119e-10)
(6.22314e-10 -8.42116e-10 -8.51385e-11)
(-1.66173e-09 -1.46394e-11 -4.23784e-12)
(-7.7437e-10 6.66188e-10 -1.11716e-11)
(1.19122e-09 1.09305e-10 -1.42731e-11)
(2.76855e-10 1.91453e-10 -2.0031e-10)
(-3.99606e-10 -1.10537e-10 5.79769e-09)
(1.22731e-10 1.83048e-10 -6.61815e-10)
(2.43258e-12 3.50759e-11 -2.68714e-12)
(2.48187e-11 1.52339e-10 1.60419e-11)
(-1.27672e-09 -3.97795e-10 -1.93394e-11)
(1.10462e-09 4.66773e-10 4.83047e-11)
(4.32604e-12 -1.48157e-11 -3.83027e-11)
(-1.95309e-10 -1.62287e-10 -2.0692e-12)
(-7.65424e-12 3.32909e-11 -5.34543e-12)
(3.23705e-11 7.23656e-12 1.23931e-11)
(-3.43997e-12 1.69143e-12 -6.95897e-12)
(4.50479e-12 4.32566e-12 -9.91477e-12)
(3.21205e-12 1.25819e-11 -9.69978e-12)
(-3.69434e-11 -4.98817e-11 8.82152e-12)
(4.38316e-11 1.24539e-12 -2.68362e-11)
(-1.33316e-11 -1.29389e-11 1.71353e-11)
(-4.37638e-12 -2.35135e-12 6.83096e-12)
(-1.997e-11 1.46335e-12 2.69457e-12)
(1.03038e-11 3.0008e-12 4.68841e-12)
(2.66287e-12 -2.18774e-12 2.96855e-12)
(-1.20245e-12 1.54911e-11 -2.93034e-11)
(2.48891e-11 1.21839e-11 2.13458e-11)
(-5.35291e-11 8.11514e-11 -1.52745e-11)
(3.84678e-11 -1.96109e-11 2.50059e-11)
(-1.82617e-11 -7.2475e-12 -1.63736e-11)
(-8.65699e-12 6.20477e-11 -9.75305e-13)
(3.43831e-11 -5.31477e-11 7.83332e-12)
(-6.97923e-12 6.49998e-11 -5.34135e-11)
(5.60542e-11 3.34734e-10 -5.25031e-11)
(2.34266e-10 -4.50141e-10 -1.96723e-11)
(-5.94733e-10 1.46802e-10 -9.9781e-12)
(-4.25516e-13 4.76809e-11 -5.45365e-11)
(-7.60586e-11 2.75429e-11 -4.88039e-11)
(1.28395e-10 -1.01562e-10 9.67136e-11)
(-9.27358e-11 -3.55447e-11 -4.42855e-12)
(6.11774e-11 -2.61589e-11 -5.92134e-11)
(3.07773e-11 1.08234e-10 5.38557e-11)
(-8.42062e-12 -1.21576e-10 -2.4212e-11)
(2.34302e-11 1.25556e-11 -1.38499e-11)
(-5.81922e-11 1.89275e-11 -3.30223e-12)
(5.72411e-11 2.53989e-11 5.23546e-12)
(-2.03936e-11 1.29785e-11 -1.46797e-11)
(5.76638e-11 2.82259e-11 7.12271e-12)
(-4.55326e-11 -2.90045e-11 -1.01482e-11)
(2.74646e-09 -7.78663e-09 4.86305e-10)
(-3.46645e-09 1.02563e-08 -7.40241e-10)
(-2.75588e-11 -6.24173e-11 -4.79641e-11)
(-3.91781e-11 -1.02866e-11 1.91019e-11)
(6.5095e-12 -2.06591e-11 1.9986e-11)
(-1.75825e-11 4.19766e-11 -5.97824e-12)
(-3.96552e-11 6.65478e-11 -9.09841e-12)
(-3.57854e-11 5.02783e-11 1.10857e-11)
(8.61706e-11 -5.17087e-11 2.76822e-11)
(-4.63873e-11 8.0636e-11 2.47008e-11)
(-5.33995e-11 5.51358e-11 -2.72063e-11)
(2.44321e-11 8.68908e-11 -1.75636e-11)
(7.42933e-11 1.07827e-11 1.86159e-11)
(5.97935e-11 2.35398e-10 2.22406e-11)
(-8.74829e-11 -2.89255e-10 -8.41839e-11)
(1.52471e-10 1.24054e-10 1.62324e-12)
(1.15474e-10 1.00744e-10 -2.90518e-10)
(-8.33684e-11 -3.39664e-10 1.66184e-10)
(3.5536e-11 1.42454e-10 -4.58273e-11)
(-1.51343e-10 2.40329e-10 -7.1468e-12)
(4.14575e-10 4.64154e-11 -1.10265e-10)
(6.04513e-11 -2.85792e-09 -2.92989e-11)
(1.22645e-09 5.65108e-10 -9.54695e-12)
(-6.93047e-10 3.23792e-10 -7.63883e-11)
(-7.0019e-10 -3.39019e-10 -2.67226e-11)
(1.37676e-09 -2.9957e-11 1.57469e-10)
(2.39279e-10 -2.31148e-10 -1.38158e-10)
(-1.25569e-10 -6.92899e-11 5.49577e-09)
(1.36497e-10 -1.06614e-10 -4.49512e-09)
(-2.1162e-11 -2.4704e-11 1.19638e-11)
(-1.7761e-09 -3.3583e-10 -1.14997e-10)
(-1.43456e-11 5.0982e-11 4.971e-12)
(2.9454e-12 -1.19926e-11 1.84747e-11)
(-1.94989e-11 -6.44992e-12 -3.88581e-12)
(-7.86948e-12 4.17688e-11 -6.6101e-12)
(3.42881e-12 1.17424e-13 8.75914e-12)
(-3.98091e-12 1.42047e-12 1.86215e-11)
(5.79948e-13 -4.04936e-12 -8.92244e-12)
(-1.43323e-12 3.96218e-12 -3.7362e-12)
(1.79342e-11 1.23613e-12 -4.75192e-12)
(-1.64615e-11 4.20359e-13 -3.55889e-12)
(-1.95263e-12 2.00677e-11 -2.47489e-12)
(7.21545e-12 -5.72814e-12 -3.01176e-13)
(-9.59923e-12 3.781e-12 3.02477e-13)
(-8.88754e-12 -1.35878e-11 -2.258e-11)
(-1.61674e-11 -2.38237e-11 1.27409e-11)
(1.25756e-11 2.1738e-11 -1.10555e-11)
(2.39847e-11 -1.04577e-10 2.29983e-11)
(-7.11757e-12 2.14671e-11 -1.52134e-11)
(-5.25665e-12 -1.78535e-13 1.4311e-11)
(7.62044e-12 -1.36861e-11 -1.4463e-11)
(-2.19681e-11 1.59897e-11 5.22878e-11)
(2.41282e-11 -2.85799e-11 -6.22483e-11)
(1.66051e-11 -5.14505e-11 -9.26198e-12)
(-1.62998e-10 2.82653e-09 -5.95299e-11)
(-9.94411e-10 -1.11321e-09 6.90217e-14)
(1.08759e-09 1.58199e-09 7.2051e-11)
(8.88304e-11 8.8709e-11 -1.09428e-10)
(-5.62983e-11 -3.76023e-11 1.1574e-10)
(-3.38549e-11 -1.17576e-10 2.72327e-11)
(-2.30734e-11 4.27455e-11 3.80533e-11)
(1.1154e-11 -1.76632e-11 -6.41338e-11)
(9.14864e-12 -6.9049e-11 3.34394e-11)
(-9.45269e-12 5.31065e-11 1.85621e-11)
(3.06968e-11 -7.83465e-11 -3.92822e-12)
(-8.03545e-11 1.41678e-11 -2.30921e-11)
(8.3891e-11 1.30722e-11 -1.17088e-11)
(-1.74016e-11 -3.1184e-12 4.97496e-11)
(-2.6587e-09 7.03311e-09 8.0026e-10)
(3.58425e-09 -2.11882e-09 -1.56108e-09)
(3.92705e-09 -1.06407e-08 -6.50909e-11)
(-9.43605e-09 1.54874e-09 3.00533e-10)
(1.6467e-10 2.08974e-12 -2.85314e-11)
(-1.08432e-10 -1.12789e-10 8.34196e-12)
(1.40746e-10 -7.43306e-11 -3.0986e-11)
(-3.81198e-11 -8.65036e-11 2.62125e-11)
(1.00985e-11 -3.14894e-12 3.86232e-11)
(-2.86105e-11 -6.2463e-11 8.38559e-11)
(2.2425e-11 -2.71641e-11 1.8701e-11)
(2.17622e-10 -4.46611e-10 -7.90435e-11)
(-2.10627e-10 5.38656e-11 3.18209e-11)
(1.6525e-10 1.4774e-10 2.27272e-10)
(4.78867e-13 -2.57379e-10 -5.97112e-11)
(-5.17052e-11 1.25438e-10 -1.86105e-11)
(1.10059e-10 -1.5859e-11 -1.58674e-10)
(-9.17327e-11 3.87487e-11 1.80994e-10)
(-7.15821e-11 1.82655e-10 -1.66382e-10)
(-2.05789e-10 -8.49809e-10 -1.88715e-10)
(-5.6576e-10 -1.95528e-10 -2.80093e-10)
(-4.48318e-11 7.01928e-10 1.40512e-10)
(-2.34925e-10 7.63098e-10 2.28426e-11)
(5.8815e-11 -3.47828e-10 5.593e-11)
(-3.93757e-10 -5.03638e-10 8.32757e-11)
(8.2365e-10 -6.86777e-10 1.0642e-12)
(-2.8705e-10 7.2824e-11 7.81975e-11)
(7.14073e-11 -2.71224e-11 5.08697e-09)
(-2.47396e-11 -6.53599e-11 -5.13667e-09)
(2.09567e-10 9.00718e-10 -5.95088e-11)
(1.37243e-10 4.17315e-11 6.54457e-11)
(-1.72309e-10 2.07524e-11 6.65333e-12)
(-4.44146e-11 -7.31958e-11 9.06712e-11)
(-1.34995e-10 1.89055e-11 4.01845e-11)
(-6.32598e-11 -9.6773e-11 -1.34088e-11)
(-1.48405e-10 5.19037e-10 -3.64134e-11)
(3.42816e-11 2.36947e-11 -7.06275e-11)