/*--------------------------------*- C++ -*----------------------------------*\
  =========                 |
  \\      /  F ield         | OpenFOAM: The Open Source CFD Toolbox
   \\    /   O peration     | Website:  https://openfoam.org
    \\  /    A nd           | Version:  8
     \\/     M anipulation  |
\*---------------------------------------------------------------------------*/
FoamFile
{
    version     2.0;
    format      ascii;
    class       vectorFieldField;
    location    "0/lagrangian/kinematicCloud";
    object      collisionRecordsPairData;
}
// * * * * * * * * * * * * * * * * * * * * * * * * * * * * * * * * * * * * * //


3300
(
1((-1.0349e-08 2.42345e-09 -9.99261e-10))
1((4.03338e-08 9.49205e-08 1.03659e-08))
2((1.90751e-07 -9.68798e-08 1.46482e-08) (-1.50771e-07 -2.66284e-07 -1.98279e-08))
4((-1.90751e-07 9.68798e-08 -1.46482e-08) (-1.45299e-07 1.00249e-07 -4.42895e-09) (5.78096e-09 6.86912e-08 -4.79787e-08) (7.56597e-09 4.41777e-09 -1.81873e-08))
2((-7.56597e-09 -4.41777e-09 1.81873e-08) (-2.26031e-08 7.58048e-09 6.61034e-09))
2((2.26031e-08 -7.58048e-09 -6.61034e-09) (-9.35205e-09 -1.54556e-07 -2.98136e-08))
2((-2.90322e-09 1.4807e-08 2.95266e-09) (3.76154e-07 -3.88173e-11 1.08147e-08))
3((2.54961e-08 1.30736e-07 2.1223e-08) (-1.27199e-09 4.43644e-11 -1.32079e-08) (-3.76154e-07 3.88173e-11 -1.08147e-08))
2((1.27199e-09 -4.43644e-11 1.32079e-08) (8.26239e-09 -7.1019e-11 1.25132e-08))
3((-2.21107e-08 -1.6825e-09 -1.1038e-08) (-8.26239e-09 7.1019e-11 -1.25132e-08) (-1.14492e-08 -5.2157e-08 6.68047e-10))
3((6.15449e-08 -3.22684e-10 9.36104e-09) (2.21107e-08 1.6825e-09 1.1038e-08) (2.05517e-09 9.03848e-09 -1.91369e-09))
3((7.94345e-08 -1.41956e-07 1.93374e-08) (-6.15449e-08 3.22684e-10 -9.36104e-09) (3.63484e-11 -4.04187e-10 -1.20806e-08))
2((-7.94345e-08 1.41956e-07 -1.93374e-08) (-4.00828e-08 1.56415e-07 -1.09809e-08))
2((-3.63484e-11 4.04187e-10 1.20806e-08) (2.32844e-08 -1.88964e-11 5.37563e-09))
2((5.85592e-08 -2.01463e-07 4.65159e-09) (-2.32844e-08 1.88964e-11 -5.37563e-09))
4((-5.85592e-08 2.01463e-07 -4.65159e-09) (-8.99479e-08 1.0524e-07 -1.44865e-08) (5.45855e-08 5.81253e-08 1.23808e-08) (0 0 0))
3((-1.01917e-07 -1.24786e-07 5.37476e-09) (-5.90673e-08 -1.62224e-07 6.11171e-09) (0 0 0))
3((2.57725e-07 -5.67659e-11 1.37075e-09) (1.01917e-07 1.24786e-07 -5.37476e-09) (-2.74467e-09 7.2345e-09 -8.63598e-09))
3((-2.57725e-07 5.67659e-11 -1.37075e-09) (-4.35896e-08 1.08054e-07 -9.49053e-09) (-2.01965e-08 3.6756e-13 6.65225e-09))
2((-1.68243e-08 2.76223e-08 -1.18662e-08) (2.01965e-08 -3.6756e-13 -6.65225e-09))
3((-2.56985e-08 -4.25199e-08 -6.13336e-09) (-5.56792e-08 -1.28899e-11 -1.50983e-09) (-1.0768e-08 1.95216e-08 -5.19946e-09))
2((5.56792e-08 1.28899e-11 1.50983e-09) (9.03199e-08 -2.25445e-10 6.81487e-09))
3((-9.03199e-08 2.25445e-10 -6.81487e-09) (-3.17532e-08 1.27295e-07 4.31065e-09) (-9.81785e-09 -2.24223e-10 -6.79084e-09))
3((-6.22323e-09 -1.98067e-08 -1.43479e-09) (3.17532e-08 -1.27295e-07 -4.31065e-09) (-2.1051e-09 1.53936e-09 3.56849e-09))
2((9.81785e-09 2.24223e-10 6.79084e-09) (1.79559e-08 -1.31228e-09 -4.49296e-10))
2((-1.79559e-08 1.31228e-09 4.49296e-10) (0 0 0))
2((2.39355e-08 1.0793e-08 2.14691e-09) (1.59531e-08 1.18722e-08 1.1456e-08))
1((-1.59531e-08 -1.18722e-08 -1.1456e-08))
0()
2((2.67189e-08 -2.26752e-07 1.966e-08) (-6.4489e-08 1.85255e-08 -1.30013e-08))
3((6.4489e-08 -1.85255e-08 1.30013e-08) (8.43643e-08 2.39632e-08 5.08686e-09) (0 0 0))
2((-8.43643e-08 -2.39632e-08 -5.08686e-09) (5.45324e-08 3.09102e-10 -1.31928e-08))
3((-5.45324e-08 -3.09102e-10 1.31928e-08) (-1.04155e-07 -6.03778e-12 3.49593e-09) (1.46367e-08 -1.02974e-07 -1.02557e-09))
2((5.02676e-08 -2.01471e-08 -2.0185e-10) (1.04155e-07 6.03778e-12 -3.49593e-09))
3((-1.19625e-07 -2.03799e-07 -5.05925e-08) (-3.93886e-07 -6.82612e-07 2.21474e-09) (3.73154e-07 -6.42856e-07 4.15164e-08))
3((-1.57898e-07 -5.36512e-09 2.8193e-08) (-1.23869e-07 2.12673e-07 1.20602e-08) (3.93886e-07 6.82612e-07 -2.21474e-09))
2((8.68459e-08 -1.56708e-07 1.75815e-09) (1.42653e-08 7.40057e-10 -5.4481e-10))
2((-1.42653e-08 -7.40057e-10 5.4481e-10) (-1.40068e-08 -1.36772e-10 4.23532e-09))
3((-1.05025e-07 -5.27369e-09 2.83569e-08) (-2.47185e-07 -8.81211e-09 2.66278e-08) (1.37356e-07 -2.35862e-07 2.93951e-09))
3((-1.77933e-08 2.957e-08 -9.14143e-09) (1.40068e-08 1.36772e-10 -4.23532e-09) (6.36416e-10 9.38704e-11 -3.34472e-09))
1((-6.36416e-10 -9.38704e-11 3.34472e-09))
3((-2.63999e-07 1.06767e-09 4.29583e-09) (-2.59518e-07 -2.47133e-09 1.33785e-08) (-1.26083e-08 -2.31804e-08 -1.72478e-08))
3((-3.06451e-07 -3.9665e-07 1.29953e-08) (3.08293e-07 -7.15419e-07 -8.03855e-09) (2.63999e-07 -1.06767e-09 -4.29583e-09))
2((3.06451e-07 3.9665e-07 -1.29953e-08) (-9.43536e-08 1.36766e-07 -3.47951e-09))
4((9.43536e-08 -1.36766e-07 3.47951e-09) (-7.64055e-08 -6.13123e-08 3.70095e-09) (-3.48056e-08 -5.27695e-08 8.76663e-09) (8.58615e-08 1.13094e-07 -7.28172e-09))
4((2.01743e-07 -3.591e-07 -9.82613e-10) (7.64055e-08 6.13123e-08 -3.70095e-09) (-2.52514e-07 2.60627e-10 -7.19066e-09) (2.90064e-08 -6.79842e-08 1.1137e-08))
3((-8.58615e-08 -1.13094e-07 7.28172e-09) (-2.4174e-08 -3.14157e-10 1.00111e-08) (-2.90064e-08 6.79842e-08 -1.1137e-08))
3((-3.53766e-08 8.2467e-08 -3.1755e-08) (2.4174e-08 3.14157e-10 -1.00111e-08) (1.82279e-07 -2.22208e-11 -1.33504e-09))
3((-6.39821e-08 1.49784e-07 -5.20688e-09) (1.68878e-08 4.01555e-11 1.28145e-09) (-1.82279e-07 2.22208e-11 1.33504e-09))
2((-1.68878e-08 -4.01555e-11 -1.28145e-09) (-1.43312e-08 4.77009e-09 -7.15832e-09))
2((1.43312e-08 -4.77009e-09 7.15832e-09) (-4.87132e-09 -6.05906e-09 -1.33089e-08))
1((1.99217e-07 -4.49125e-07 1.92938e-08))
1((4.03922e-10 6.96613e-09 2.16379e-08))
4((1.20484e-07 -1.26439e-08 -9.28947e-09) (1.92611e-07 2.28345e-08 -1.36006e-08) (-4.03922e-10 -6.96613e-09 -2.16379e-08) (1.6804e-08 8.32367e-08 -8.96615e-09))
4((-1.92611e-07 -2.28345e-08 1.36006e-08) (-3.85743e-08 9.67882e-10 2.88991e-08) (5.00487e-08 2.52321e-07 -1.73356e-08) (1.90631e-08 3.16101e-08 -3.63847e-08))
2((-1.90631e-08 -3.16101e-08 3.63847e-08) (-1.95621e-08 2.19461e-13 3.08856e-08))
3((2.56153e-08 4.79481e-08 2.97479e-08) (-9.66734e-09 6.12868e-10 -1.30119e-08) (1.95621e-08 -2.19461e-13 -3.08856e-08))
2((-2.68019e-07 2.45285e-07 1.17213e-08) (-3.50727e-07 5.38814e-08 1.50132e-08))
2((9.66734e-09 -6.12868e-10 1.30119e-08) (1.96008e-08 7.02559e-10 1.37637e-08))
3((-1.96008e-08 -7.02559e-10 -1.37637e-08) (2.62875e-07 -6.33197e-08 -1.47792e-08) (5.66049e-09 1.39922e-07 1.06192e-08))
3((-2.62875e-07 6.33197e-08 1.47792e-08) (-2.42334e-07 2.78674e-08 1.32441e-08) (1.6125e-09 4.41357e-08 1.46285e-08))
2((2.42334e-07 -2.78674e-08 -1.32441e-08) (2.34636e-07 8.67917e-08 -1.64619e-08))
3((2.53273e-07 -6.94345e-10 1.95303e-08) (-2.34636e-07 -8.67917e-08 1.64619e-08) (6.52164e-08 4.21411e-07 -2.69207e-09))
2((-9.05535e-08 1.02851e-07 -1.37711e-08) (-2.53273e-07 6.94345e-10 -1.95303e-08))
5((9.05535e-08 -1.02851e-07 1.37711e-08) (-1.74636e-08 9.99833e-09 1.57623e-08) (3.56441e-09 -1.71533e-07 -6.90955e-09) (7.96234e-09 9.05754e-09 -9.29773e-09) (-7.23424e-08 -4.38526e-08 5.26053e-09))
2((1.0349e-08 -2.42345e-09 9.99261e-10) (-7.96234e-09 -9.05754e-09 9.29773e-09))
3((-1.94861e-07 -2.56033e-07 -1.84134e-08) (-2.63339e-07 -1.34683e-08 -1.76276e-08) (-4.03338e-08 -9.49205e-08 -1.03659e-08))
1((-2.47465e-08 5.30353e-09 -3.3256e-09))
3((-2.17857e-08 5.14017e-08 4.01355e-08) (1.50771e-07 2.66284e-07 1.98279e-08) (2.63339e-07 1.34683e-08 1.76276e-08))
3((-5.78096e-09 -6.86912e-08 4.79787e-08) (1.19175e-08 -5.61254e-08 3.13075e-08) (-4.45478e-09 -9.94657e-10 2.01319e-08))
2((1.52554e-07 -4.81282e-08 9.6237e-09) (1.45299e-07 -1.00249e-07 4.42895e-09))
5((-2.28195e-07 -7.8509e-08 4.10647e-09) (-1.52554e-07 4.81282e-08 -9.6237e-09) (1.40624e-09 -6.18354e-09 -2.42055e-09) (-6.56045e-08 -6.1333e-08 2.81429e-08) (9.35205e-09 1.54556e-07 2.98136e-08))
4((6.63555e-08 -2.51906e-07 9.91416e-09) (2.90322e-09 -1.4807e-08 -2.95266e-09) (2.28195e-07 7.8509e-08 -4.10647e-09) (-5.88226e-08 1.55054e-11 5.8973e-09))
4((-2.54961e-08 -1.30736e-07 -2.1223e-08) (5.60542e-08 -1.91077e-07 -2.16164e-08) (-2.4766e-08 5.26122e-09 -7.09741e-09) (5.88226e-08 -1.55054e-11 -5.8973e-09))
2((2.4766e-08 -5.26122e-09 7.09741e-09) (1.26535e-09 3.98189e-10 8.40462e-09))
4((-1.26535e-09 -3.98189e-10 -8.40462e-09) (1.14492e-08 5.2157e-08 -6.68047e-10) (2.07205e-08 4.99303e-08 -3.87143e-09) (1.56848e-08 1.46148e-09 -9.34638e-09))
3((-1.88044e-08 1.23715e-08 5.93606e-09) (-1.56848e-08 -1.46148e-09 9.34638e-09) (-2.05517e-09 -9.03848e-09 1.91369e-09))
2((1.88044e-08 -1.23715e-08 -5.93606e-09) (-1.18928e-11 -2.5778e-10 -2.56199e-09))
4((1.44227e-07 -1.92818e-07 -4.6361e-09) (4.00828e-08 -1.56415e-07 1.09809e-08) (2.25585e-10 1.0756e-09 7.07481e-09) (-2.14469e-08 -4.61101e-09 1.24614e-08))
3((-5.45855e-08 -5.81253e-08 -1.23808e-08) (2.14469e-08 4.61101e-09 -1.24614e-08) (6.91334e-08 -8.63803e-08 -7.92972e-09))
5((3.99324e-09 -1.26301e-08 1.09022e-08) (8.99479e-08 -1.0524e-07 1.44865e-08) (6.01161e-08 6.35601e-08 -8.29001e-09) (5.90673e-08 1.62224e-07 -6.11171e-09) (7.02864e-08 -1.07257e-08 1.01718e-08))
4((-7.02864e-08 1.07257e-08 -1.01718e-08) (-1.8295e-08 1.48623e-09 -3.92539e-09) (2.57513e-08 3.29777e-08 1.6452e-08) (1.84741e-10 4.52246e-10 9.06445e-10))
2((2.74467e-09 -7.2345e-09 8.63598e-09) (-1.84741e-10 -4.52246e-10 -9.06445e-10))
2((7.91841e-08 -9.80851e-08 1.13021e-08) (4.35896e-08 -1.08054e-07 9.49053e-09))
4((2.56985e-08 4.25199e-08 6.13336e-09) (1.83072e-08 3.40847e-08 1.46142e-08) (1.68243e-08 -2.76223e-08 1.18662e-08) (2.60065e-08 1.0416e-10 2.11325e-08))
3((1.19263e-08 -2.2424e-08 4.30274e-09) (1.0768e-08 -1.95216e-08 5.19946e-09) (-2.60065e-08 -1.0416e-10 -2.11325e-08))
4((-3.89202e-08 -7.27256e-08 7.29182e-09) (-1.19263e-08 2.2424e-08 -4.30274e-09) (-8.17382e-08 1.31871e-08 -2.40331e-08) (1.02475e-08 3.19986e-10 -3.24414e-08))
3((6.22323e-09 1.98067e-08 1.43479e-09) (8.17382e-08 -1.31871e-08 2.40331e-08) (-1.74358e-09 1.69198e-08 1.73796e-08))
4((2.1051e-09 -1.53936e-09 -3.56849e-09) (4.45752e-10 1.25731e-09 9.23339e-09) (9.42757e-09 5.38346e-09 5.35875e-09) (4.8402e-09 -3.27815e-09 -5.66015e-09))
3((-9.42757e-09 -5.38346e-09 -5.35875e-09) (-2.39355e-08 -1.0793e-08 -2.14691e-09) (0 0 0))
1((-1.05186e-08 -5.56218e-09 1.35617e-10))
2((-3.36223e-08 -1.48741e-08 2.03405e-09) (-3.60863e-08 -1.38972e-08 -1.57953e-08))
4((-6.09232e-08 -1.50752e-07 2.21579e-08) (-1.26014e-08 -1.52892e-07 2.03965e-09) (3.60863e-08 1.38972e-08 1.57953e-08) (7.25724e-08 -4.83457e-08 3.98632e-08))
3((-2.67189e-08 2.26752e-07 -1.966e-08) (6.09232e-08 1.50752e-07 -2.21579e-08) (-1.43464e-07 4.04568e-08 8.6505e-09))
4((9.99972e-08 1.74577e-08 -1.99208e-08) (1.43464e-07 -4.04568e-08 -8.6505e-09) (0 0 0) (0 0 0))
3((-9.99972e-08 -1.74577e-08 1.99208e-08) (0 0 0) (8.18218e-09 -1.16923e-08 8.08998e-09))
3((0 0 0) (-1.46367e-08 1.02974e-07 1.02557e-09) (1.17905e-08 -3.04119e-12 1.21551e-10))
1((-1.17905e-08 3.04119e-12 -1.21551e-10))
3((-5.02676e-08 2.01471e-08 2.0185e-10) (-1.05858e-08 7.40121e-08 5.00335e-10) (-2.87719e-08 -1.15302e-08 -2.61268e-12))
2((-2.52005e-08 -1.2267e-07 -1.37132e-09) (1.05858e-08 -7.40121e-08 -5.00335e-10))
3((2.87719e-08 1.15302e-08 2.61268e-12) (3.45625e-09 -1.22176e-10 4.6432e-11) (0 0 0))
1((0 0 0))
1((-3.45625e-09 1.22176e-10 -4.6432e-11))
0()
0()
4((1.19625e-07 2.03799e-07 5.05925e-08) (2.69249e-07 4.68672e-07 3.47936e-08) (3.42362e-08 2.53236e-11 -3.1525e-08) (-8.88952e-08 1.57306e-07 -5.35665e-08))
5((8.84536e-08 1.5075e-07 -3.74935e-08) (-3.73154e-07 6.42856e-07 -4.15164e-08) (-5.08646e-07 -1.52037e-09 5.10941e-08) (-3.42362e-08 -2.53236e-11 3.1525e-08) (-1.25866e-07 2.18198e-07 -3.43116e-08))
3((1.23869e-07 -2.12673e-07 -1.20602e-08) (1.4212e-07 -2.47743e-07 -1.53819e-08) (-3.35358e-08 -3.71535e-10 1.05099e-08))
4((1.05025e-07 5.27369e-09 -2.83569e-08) (1.57898e-07 5.36512e-09 -2.8193e-08) (-8.68459e-08 1.56708e-07 -1.75815e-09) (-4.9775e-08 8.54508e-08 2.41086e-09))
3((3.35358e-08 3.71535e-10 -1.05099e-08) (8.89017e-08 2.8973e-09 -9.3417e-09) (4.9775e-08 -8.54508e-08 -2.41086e-09))
4((-1.37356e-07 2.35862e-07 -2.93951e-09) (-1.37881e-07 2.41402e-07 2.05568e-09) (-8.89017e-08 -2.8973e-09 9.3417e-09) (-6.76625e-08 2.68523e-10 -9.04682e-09))
3((2.47185e-07 8.81211e-09 -2.66278e-08) (2.59518e-07 2.47133e-09 -1.33785e-08) (1.77933e-08 -2.957e-08 9.14143e-09))
4((1.26083e-08 2.31804e-08 1.72478e-08) (-1.36539e-09 -2.23813e-09 1.42991e-08) (6.76625e-08 -2.68523e-10 9.04682e-09) (-3.42693e-09 9.40062e-11 -5.63806e-09))
2((-3.80222e-07 3.1999e-07 -1.44185e-08) (-4.93455e-07 4.04932e-08 -2.12835e-08))
1((3.42693e-09 -9.40062e-11 5.63806e-09))
4((-3.08293e-07 7.15419e-07 8.03855e-09) (-2.88335e-08 7.23057e-07 7.8261e-09) (3.48056e-08 5.27695e-08 -8.76663e-09) (-3.65016e-09 7.49221e-10 -1.74709e-09))
1((3.65016e-09 -7.49221e-10 1.74709e-09))
2((-2.01743e-07 3.591e-07 9.82613e-10) (-1.39181e-08 4.12567e-07 4.46911e-09))
4((2.52514e-07 -2.60627e-10 7.19066e-09) (9.40688e-08 -2.19207e-08 1.13944e-08) (3.53766e-08 -8.2467e-08 3.1755e-08) (1.43473e-07 -2.5183e-07 2.15465e-08))
3((-1.43473e-07 2.5183e-07 -2.15465e-08) (1.67656e-08 3.04913e-07 -2.40787e-08) (2.89127e-08 -1.91421e-08 8.02301e-09))
3((-3.30763e-09 -3.06799e-08 -1.10912e-08) (-9.40688e-08 2.19207e-08 -1.13944e-08) (6.39821e-08 -1.49784e-07 5.20688e-09))
4((3.30763e-09 3.06799e-08 1.10912e-08) (-6.8507e-08 1.42484e-09 1.02447e-08) (4.87405e-08 -1.13585e-07 -9.74656e-09) (4.87132e-09 6.05906e-09 1.33089e-08))
3((6.8507e-08 -1.42484e-09 -1.02447e-08) (-6.36978e-08 -2.04321e-08 -1.2451e-08) (1.25928e-07 -1.1191e-07 -1.3384e-08))
4((-1.20484e-07 1.26439e-08 9.28947e-09) (6.36978e-08 2.04321e-08 1.2451e-08) (-1.99217e-07 4.49125e-07 -1.92938e-08) (6.94896e-08 3.4668e-07 -2.61627e-08))
4((-1.25928e-07 1.1191e-07 1.3384e-08) (1.66092e-08 -3.77131e-08 2.67648e-08) (-1.48064e-07 -2.12909e-07 -7.69143e-09) (-6.94896e-08 -3.4668e-07 2.61627e-08))
3((1.54956e-07 1.82916e-08 -4.12224e-10) (1.97851e-08 2.89741e-08 2.09812e-09) (-1.6804e-08 -8.32367e-08 8.96615e-09))
4((3.61506e-08 -1.11184e-07 5.65235e-09) (-5.00487e-08 -2.52321e-07 1.73356e-08) (-1.54956e-07 -1.82916e-08 4.12224e-10) (-1.4962e-08 3.29132e-10 -9.72756e-09))
4((3.50727e-07 -5.38814e-08 -1.50132e-08) (3.85743e-08 -9.67882e-10 -2.88991e-08) (-2.56153e-08 -4.79481e-08 -2.97479e-08) (6.27074e-08 3.10158e-07 -1.36845e-08))
3((1.4962e-08 -3.29132e-10 9.72756e-09) (2.56547e-07 -1.47953e-07 1.29134e-08) (-6.27074e-08 -3.10158e-07 1.36845e-08))
2((-2.56547e-07 1.47953e-07 -1.29134e-08) (-1.12173e-07 2.7717e-07 -1.22766e-08))
3((2.68019e-07 -2.45285e-07 -1.17213e-08) (4.56686e-08 4.58226e-08 6.89336e-09) (2.45071e-07 -1.0316e-07 -9.57459e-09))
3((-7.65023e-08 1.7968e-08 -4.78454e-09) (-4.56686e-08 -4.58226e-08 -6.89336e-09) (-5.66049e-09 -1.39922e-07 -1.06192e-08))
4((4.75682e-08 -1.95493e-07 -1.10959e-08) (7.65023e-08 -1.7968e-08 4.78454e-09) (-1.39603e-07 4.04199e-08 4.29393e-09) (-1.6125e-09 -4.41357e-08 -1.46285e-08))
3((1.39603e-07 -4.04199e-08 -4.29393e-09) (9.69196e-08 5.87143e-08 -5.10004e-09) (5.00098e-09 -2.05809e-08 4.75466e-09))
4((9.11532e-08 -3.74173e-07 4.23623e-09) (-6.52164e-08 -4.21411e-07 2.69207e-09) (-9.69196e-08 -5.87143e-08 5.10004e-09) (-6.13737e-08 1.81095e-08 6.72564e-09))
2((6.13737e-08 -1.81095e-08 -6.72564e-09) (7.23424e-08 4.38526e-08 -5.26053e-09))
2((-3.56441e-09 1.71533e-07 6.90955e-09) (1.23901e-07 1.17628e-07 3.66041e-09))
2((7.63105e-09 -3.58925e-09 -1.84952e-08) (1.74636e-08 -9.99833e-09 -1.57623e-08))
5((1.94861e-07 2.56033e-07 1.84134e-08) (-7.63105e-09 3.58925e-09 1.84952e-08) (1.8954e-07 1.78487e-07 1.45586e-08) (-3.36944e-08 1.42934e-07 -1.90983e-09) (2.47465e-08 -5.30353e-09 3.3256e-09))
3((1.75863e-07 -4.30606e-08 1.5787e-09) (9.56928e-08 -2.87403e-08 7.65473e-09) (3.36944e-08 -1.42934e-07 1.90983e-09))
3((-5.40186e-08 1.7204e-07 -6.51384e-09) (-1.75863e-07 4.30606e-08 -1.5787e-09) (-3.48821e-08 -5.21788e-09 2.23967e-08))
3((1.27096e-08 -5.49529e-08 -5.17026e-08) (2.17857e-08 -5.14017e-08 -4.01355e-08) (4.45478e-09 9.94657e-10 -2.01319e-08))
4((-1.27096e-08 5.49529e-08 5.17026e-08) (-4.19196e-08 -1.61061e-08 -2.93858e-08) (3.48821e-08 5.21788e-09 -2.23967e-08) (1.29516e-08 -4.01183e-08 3.20386e-08))
4((2.84204e-08 -8.87746e-08 -1.35166e-08) (-1.19175e-08 5.61254e-08 -3.13075e-08) (4.19196e-08 1.61061e-08 2.93858e-08) (-7.87562e-08 -3.61784e-08 3.209e-08))
2((6.56045e-08 6.1333e-08 -2.81429e-08) (7.87562e-08 3.61784e-08 -3.209e-08))
3((-1.40624e-09 6.18354e-09 2.42055e-09) (1.70977e-08 3.48132e-08 -4.4792e-09) (2.80246e-08 -2.36212e-08 2.64171e-09))
3((-2.94388e-08 5.15499e-08 -1.81031e-08) (-6.63555e-08 2.51906e-07 -9.91416e-09) (-3.29857e-07 2.88705e-10 -8.81191e-09))
3((-5.60542e-08 1.91077e-07 2.16164e-08) (3.81581e-08 -4.76642e-08 1.63707e-08) (3.29857e-07 -2.88705e-10 8.81191e-09))
4((-3.81581e-08 4.76642e-08 -1.63707e-08) (-7.44393e-09 -9.20041e-08 -2.40975e-08) (-1.59968e-07 1.10871e-07 -8.15534e-09) (1.55299e-08 1.75506e-08 -1.23718e-08))
3((-1.55299e-08 -1.75506e-08 1.23718e-08) (2.69468e-08 1.92967e-09 4.19544e-09) (-2.07205e-08 -4.99303e-08 3.87143e-09))
1((-2.69468e-08 -1.92967e-09 -4.19544e-09))
2((-2.28169e-08 -2.34238e-08 6.48127e-10) (1.18928e-11 2.5778e-10 2.56199e-09))
3((-2.25585e-10 -1.0756e-09 -7.07481e-09) (-3.68333e-08 -3.72145e-08 -6.36757e-09) (-1.67322e-08 6.07419e-08 -8.21808e-09))
2((-1.44227e-07 1.92818e-07 4.6361e-09) (-4.74987e-08 2.33685e-07 6.21125e-10))
3((-6.42483e-09 4.11121e-08 2.58851e-09) (-6.91334e-08 8.63803e-08 7.92972e-09) (-6.01161e-08 -6.35601e-08 8.29001e-09))
4((-3.99324e-09 1.26301e-08 -1.09022e-08) (2.8288e-09 -1.11416e-08 -7.72075e-09) (-2.57513e-08 -3.29777e-08 -1.6452e-08) (-2.18877e-08 4.99468e-09 -6.73497e-09))
2((2.18877e-08 -4.99468e-09 6.73497e-09) (-7.42166e-09 -8.03784e-09 2.33267e-09))
1((1.8295e-08 -1.48623e-09 3.92539e-09))
4((1.38728e-08 5.44809e-08 -1.75057e-08) (-1.83072e-08 -3.40847e-08 -1.46142e-08) (-7.91841e-08 9.80851e-08 -1.13021e-08) (-4.56322e-09 7.08183e-10 -1.01849e-08))
2((4.56322e-09 -7.08183e-10 1.01849e-08) (-1.02475e-08 -3.19986e-10 3.24414e-08))
2((5.68775e-08 2.70884e-08 -2.9959e-09) (3.89202e-08 7.27256e-08 -7.29182e-09))
3((-7.18481e-09 -3.93559e-09 1.65908e-08) (-3.02202e-08 -1.59264e-08 8.42439e-09) (3.94005e-08 -2.85444e-08 1.12883e-08))
3((4.57988e-08 1.76966e-08 1.71748e-09) (3.02202e-08 1.59264e-08 -8.42439e-09) (1.74358e-09 -1.69198e-08 -1.73796e-08))
5((-4.57988e-08 -1.76966e-08 -1.71748e-09) (-4.45752e-10 -1.25731e-09 -9.23339e-09) (1.99937e-09 1.16954e-08 -2.52768e-08) (-8.3816e-08 5.88316e-08 3.10033e-08) (3.1334e-08 1.59744e-08 -2.10968e-08))
5((-9.58778e-08 -4.33618e-08 6.89081e-09) (-7.6393e-09 -4.00224e-09 -7.1535e-09) (8.3816e-08 -5.88316e-08 -3.10033e-08) (-2.29433e-08 1.62455e-08 -2.68187e-08) (1.07995e-09 1.16643e-08 -2.46914e-08))
4((-3.1334e-08 -1.59744e-08 2.10968e-08) (-4.8402e-09 3.27815e-09 5.66015e-09) (1.05186e-08 5.56218e-09 -1.35617e-10) (-6.15652e-08 4.49375e-08 1.9226e-08))
3((7.6393e-09 4.00224e-09 7.1535e-09) (3.36223e-08 1.48741e-08 -2.03405e-09) (6.15652e-08 -4.49375e-08 -1.9226e-08))
3((1.26014e-08 1.52892e-07 -2.03965e-09) (3.68558e-09 1.06268e-07 1.37487e-08) (9.53556e-08 4.06907e-08 -1.2566e-08))
2((-7.25724e-08 4.83457e-08 -3.98632e-08) (2.21034e-09 4.1945e-08 3.67378e-09))
4((-1.37734e-07 -6.77851e-08 3.40557e-08) (-2.21034e-09 -4.1945e-08 -3.67378e-09) (-1.18503e-07 8.30511e-08 -4.81459e-08) (-5.07847e-08 -2.40523e-08 3.83224e-08))
2((5.07847e-08 2.40523e-08 -3.83224e-08) (2.04486e-09 1.68839e-08 1.20527e-10))
2((-2.04486e-09 -1.68839e-08 -1.20527e-10) (0 0 0))
3((-2.3762e-09 -2.42421e-09 4.48403e-09) (-1.40982e-08 4.65323e-08 4.55596e-09) (-2.08377e-08 -4.05053e-11 7.49475e-10))
2((-8.18218e-09 1.16923e-08 -8.08998e-09) (1.40982e-08 -4.65323e-08 -4.55596e-09))
1((5.73527e-09 -1.90741e-08 -2.03179e-10))
3((1.26714e-07 7.61788e-08 -6.2548e-10) (2.52005e-08 1.2267e-07 1.37132e-09) (-5.54374e-10 3.89398e-09 2.645e-11))
3((-1.24216e-08 6.89609e-08 9.83757e-09) (4.67033e-08 8.08879e-08 2.79155e-09) (2.53857e-08 -4.73456e-10 4.10734e-09))
4((2.27644e-08 -3.85117e-07 -2.71913e-08) (-2.69249e-07 -4.68672e-07 -3.47936e-08) (-4.67033e-08 -8.08879e-08 -2.79155e-09) (-2.71351e-07 -9.49861e-12 4.24132e-08))
5((-3.09364e-07 -5.35331e-07 6.79139e-08) (-8.84536e-08 -1.5075e-07 3.74935e-08) (-9.18631e-08 1.63826e-10 9.1082e-10) (2.71351e-07 9.49861e-12 -4.24132e-08) (8.88952e-08 -1.57306e-07 5.35665e-08))
5((9.18631e-08 -1.63826e-10 -9.1082e-10) (5.66227e-07 -8.29401e-10 4.29238e-08) (1.25866e-07 -2.18198e-07 3.43116e-08) (-1.40541e-07 2.42727e-07 2.39106e-10) (3.11267e-08 5.85635e-08 -6.96848e-08))
5((2.13978e-09 3.83404e-10 1.38363e-08) (-1.4212e-07 2.47743e-07 1.53819e-08) (5.08646e-07 1.52037e-09 -5.10941e-08) (7.01262e-08 -1.25664e-07 -7.12862e-08) (-3.11267e-08 -5.85635e-08 6.96848e-08))
3((-2.13978e-09 -3.83404e-10 -1.38363e-08) (-2.04099e-07 -1.24858e-08 -1.5166e-08) (-1.55899e-07 -2.70489e-07 -8.01696e-09))
5((2.04099e-07 1.24858e-08 1.5166e-08) (-2.01314e-09 9.17029e-08 -3.66612e-09) (1.36539e-09 2.23813e-09 -1.42991e-08) (4.93455e-07 -4.04932e-08 2.12835e-08) (1.37881e-07 -2.41402e-07 -2.05568e-09))
3((-7.56636e-07 2.74901e-07 -9.65604e-09) (-6.89553e-07 -5.21645e-07 3.76731e-09) (2.01314e-09 -9.17029e-08 3.66612e-09))
3((9.4031e-08 -3.92922e-07 4.34528e-08) (3.60229e-07 2.71372e-07 1.51918e-08) (7.56636e-07 -2.74901e-07 9.65604e-09))
5((3.80222e-07 -3.1999e-07 1.44185e-08) (2.91442e-07 3.18083e-07 -3.30025e-08) (-3.60229e-07 -2.71372e-07 -1.51918e-08) (-4.16988e-07 9.18761e-08 1.14674e-08) (7.83371e-09 -3.18486e-08 1.99911e-09))
4((2.88335e-08 -7.23057e-07 -7.8261e-09) (1.60802e-07 -4.4661e-07 -3.2197e-08) (-2.91442e-07 -3.18083e-07 3.30025e-08) (-6.61033e-09 1.52e-09 -2.78242e-09))
5((-1.60802e-07 4.4661e-07 3.2197e-08) (1.08856e-08 -1.11507e-07 2.58614e-08) (-3.54446e-07 1.03022e-07 -2.39176e-08) (4.16988e-07 -9.18761e-08 -1.14674e-08) (1.98042e-08 2.18142e-08 6.6239e-09))
2((-1.98042e-08 -2.18142e-08 -6.6239e-09) (6.61033e-09 -1.52e-09 2.78242e-09))
3((7.33682e-08 -4.92401e-07 -8.05352e-09) (1.39181e-08 -4.12567e-07 -4.46911e-09) (-1.17447e-07 -3.00121e-10 2.17655e-08))
4((3.2821e-07 -2.26602e-07 1.21988e-08) (-1.67656e-08 -3.04913e-07 2.40787e-08) (1.17447e-07 3.00121e-10 -2.17655e-08) (-1.62291e-08 -8.22275e-09 -3.87185e-09))
2((1.62291e-08 8.22275e-09 3.87185e-09) (-2.89127e-08 1.91421e-08 -8.02301e-09))
2((-4.87405e-08 1.13585e-07 9.74656e-09) (2.14096e-08 1.21467e-07 1.07724e-08))
4((1.66272e-08 6.5568e-09 -1.2453e-09) (3.89308e-08 1.57708e-08 4.88315e-09) (2.37405e-08 -9.35996e-08 -1.15414e-09) (-2.14096e-08 -1.21467e-07 -1.07724e-08))
4((-3.89308e-08 -1.57708e-08 -4.88315e-09) (-2.66327e-07 2.29371e-08 -1.42543e-08) (1.48064e-07 2.12909e-07 7.69143e-09) (1.25037e-08 -4.87993e-08 -4.88861e-09))
4((5.93494e-08 -1.59562e-07 -2.34961e-08) (-1.97851e-08 -2.89741e-08 -2.09812e-09) (2.66327e-07 -2.29371e-08 1.42543e-08) (-1.66092e-08 3.77131e-08 -2.67648e-08))
4((-5.93494e-08 1.59562e-07 2.34961e-08) (-7.5038e-09 -1.51669e-08 -1.27906e-08) (-1.7674e-07 3.64406e-07 2.51708e-08) (1.37997e-07 6.5565e-09 7.6126e-09))
3((3.80375e-08 6.21121e-08 -3.59647e-10) (-1.37997e-07 -6.5565e-09 -7.6126e-09) (-1.70768e-07 1.12245e-07 2.45333e-09))
3((-1.83611e-07 9.59474e-08 -4.30161e-09) (-3.61506e-08 1.11184e-07 -5.65235e-09) (-3.80375e-08 -6.21121e-08 3.59647e-10))
2((1.83611e-07 -9.59474e-08 4.30161e-09) (2.19982e-07 -7.36964e-09 6.72357e-09))
4((1.44286e-08 -3.09971e-08 1.98561e-09) (3.6338e-08 2.60906e-08 3.20423e-09) (-2.19982e-07 7.36964e-09 -6.72357e-09) (1.12173e-07 -2.7717e-07 1.22766e-08))
3((-3.6338e-08 -2.60906e-08 -3.20423e-09) (-8.91031e-08 -6.81538e-08 -3.75731e-09) (5.41165e-09 -1.15152e-08 -6.51954e-10))
3((-2.45071e-07 1.0316e-07 9.57459e-09) (-1.15674e-07 1.2419e-08 8.78581e-09) (8.91031e-08 6.81538e-08 3.75731e-09))
4((-4.75682e-08 1.95493e-07 1.10959e-08) (-5.80035e-08 -9.23102e-08 4.40663e-09) (-1.17455e-07 3.32958e-08 1.65119e-09) (1.15674e-07 -1.2419e-08 -8.78581e-09))
5((1.8257e-07 -1.0072e-07 4.41409e-09) (1.17455e-07 -3.32958e-08 -1.65119e-09) (4.47712e-08 6.9335e-08 -1.85972e-08) (4.50915e-09 3.38366e-09 -1.40999e-08) (-5.00098e-09 2.05809e-08 -4.75466e-09))
4((-9.11532e-08 3.74173e-07 -4.23623e-09) (-7.62031e-09 3.8405e-07 -7.2672e-09) (-5.81647e-08 3.12584e-08 -1.85399e-08) (-4.50915e-09 -3.38366e-09 1.40999e-08))
4((1.16045e-07 -6.41205e-08 1.86651e-08) (5.81647e-08 -3.12584e-08 1.85399e-08) (-1.23901e-07 -1.17628e-07 -3.66041e-09) (-6.07435e-08 -3.67018e-08 3.15577e-09))
4((-1.39952e-07 7.72037e-08 -3.74585e-09) (-3.00551e-07 -1.82589e-07 -2.21645e-08) (9.22045e-10 -1.86895e-07 -1.12378e-08) (-5.22617e-08 2.93324e-08 3.62543e-09))
4((-1.16045e-07 6.41205e-08 -1.86651e-08) (3.00551e-07 1.82589e-07 2.21645e-08) (2.35598e-07 1.44321e-07 2.02853e-08) (-3.69174e-08 2.03827e-08 1.01536e-08))
3((-9.56928e-08 2.87403e-08 -7.65473e-09) (-2.35598e-07 -1.44321e-07 -2.02853e-08) (-1.8954e-07 -1.78487e-07 -1.45586e-08))
2((3.69174e-08 -2.03827e-08 -1.01536e-08) (5.29384e-08 -3.01586e-08 6.08386e-10))
1((-5.29384e-08 3.01586e-08 -6.08386e-10))
3((5.40186e-08 -1.7204e-07 6.51384e-09) (-1.08601e-07 -2.79558e-07 5.1042e-10) (-1.50029e-07 -2.09643e-08 1.09823e-08))
5((1.50029e-07 2.09643e-08 -1.09823e-08) (2.05072e-07 7.94277e-08 6.76271e-09) (-8.06537e-08 7.96905e-08 -3.41596e-08) (-1.29516e-08 4.01183e-08 -3.20386e-08) (0 0 0))
3((-2.08672e-07 2.1103e-07 3.78353e-09) (-2.84204e-08 8.87746e-08 1.35166e-08) (-2.05072e-07 -7.94277e-08 -6.76271e-09))
2((-1.70977e-08 -3.48132e-08 4.4792e-09) (-2.04161e-08 -4.25951e-08 1.20714e-09))
3((-1.73884e-08 -7.03355e-08 -2.5709e-08) (1.07938e-08 1.06347e-08 -2.73617e-08) (1.10271e-07 -8.85832e-08 -5.52308e-09))
4((2.94388e-08 -5.15499e-08 1.81031e-08) (1.73884e-08 7.03355e-08 2.5709e-08) (1.07347e-07 -8.76263e-08 -1.60914e-08) (-2.80246e-08 2.36212e-08 -2.64171e-09))
3((-1.07347e-07 8.76263e-08 1.60914e-08) (5.46355e-08 -8.90243e-09 4.77936e-09) (6.62834e-08 1.9873e-07 1.63002e-08))
4((3.61156e-08 1.14412e-07 1.51129e-08) (7.44393e-09 9.20041e-08 2.40975e-08) (-5.12766e-09 -2.17813e-09 6.09741e-10) (-5.46355e-08 8.90243e-09 -4.77936e-09))
3((1.74488e-07 2.08097e-08 1.22778e-08) (1.59968e-07 -1.10871e-07 8.15534e-09) (5.12766e-09 2.17813e-09 -6.09741e-10))
4((-1.74488e-07 -2.08097e-08 -1.22778e-08) (-1.78932e-07 6.00298e-08 -1.65757e-08) (2.28169e-08 2.34238e-08 -6.48127e-10) (-1.83091e-09 -5.9605e-09 5.52687e-10))
4((-2.59096e-08 -1.11865e-07 -1.91937e-09) (1.78932e-07 -6.00298e-08 1.65757e-08) (3.68333e-08 3.72145e-08 6.36757e-09) (-1.61602e-08 3.39378e-09 2.59233e-08))
3((1.67322e-08 -6.07419e-08 8.21808e-09) (3.37161e-08 -6.28308e-08 -3.80894e-09) (1.61602e-08 -3.39378e-09 -2.59233e-08))
3((1.48366e-07 -2.79964e-07 -7.01038e-09) (4.74987e-08 -2.33685e-07 -6.21125e-10) (-1.33943e-07 -2.94458e-08 6.89735e-09))
3((5.58218e-08 -1.04802e-07 -4.23587e-09) (6.42483e-09 -4.11121e-08 -2.58851e-09) (1.33943e-07 2.94458e-08 -6.89735e-09))
4((-2.8288e-09 1.11416e-08 7.72075e-09) (0 0 0) (2.49074e-07 -1.90228e-07 7.68391e-09) (7.42166e-09 8.03784e-09 -2.33267e-09))
4((-6.07249e-08 -5.44402e-08 -4.00014e-09) (1.31699e-07 1.35378e-07 -8.54432e-09) (-2.49074e-07 1.90228e-07 -7.68391e-09) (1.20818e-08 -3.8727e-09 8.71528e-09))
3((6.07249e-08 5.44402e-08 4.00014e-09) (4.65332e-08 9.10762e-08 -1.38976e-08) (-9.17973e-09 3.72272e-08 -3.27656e-08))
3((-4.65332e-08 -9.10762e-08 1.38976e-08) (-1.38728e-08 -5.44809e-08 1.75057e-08) (-6.22379e-08 2.77115e-08 -5.27613e-09))
3((6.22379e-08 -2.77115e-08 5.27613e-09) (-5.68775e-08 -2.70884e-08 2.9959e-09) (9.59e-08 -1.0565e-07 5.23519e-09))
4((7.76548e-08 2.02772e-08 -2.45029e-08) (7.18481e-09 3.93559e-09 -1.65908e-08) (-4.08302e-08 2.95782e-08 -1.22329e-08) (-9.59e-08 1.0565e-07 -5.23519e-09))
4((1.42042e-08 5.95054e-09 -1.24258e-08) (1.44665e-07 6.72916e-08 -8.62856e-09) (-1.1589e-07 8.21557e-08 1.21929e-08) (4.08302e-08 -2.95782e-08 1.22329e-08))
4((-1.44665e-07 -6.72916e-08 8.62856e-09) (-8.05447e-08 -3.75088e-08 4.07177e-09) (-9.21132e-08 6.54005e-08 9.35247e-09) (-3.94005e-08 2.85444e-08 -1.12883e-08))
3((9.58778e-08 4.33618e-08 -6.89081e-09) (8.05447e-08 3.75088e-08 -4.07177e-09) (-1.99937e-09 -1.16954e-08 2.52768e-08))
4((-1.65417e-08 -7.67533e-09 1.23004e-09) (-6.02563e-08 -2.7517e-08 1.39114e-09) (1.63728e-09 5.03493e-08 7.86368e-09) (-1.07995e-09 -1.16643e-08 2.46914e-08))
3((2.96719e-08 1.25996e-08 -1.03581e-08) (1.65417e-08 7.67533e-09 -1.23004e-09) (2.29433e-08 -1.62455e-08 2.68187e-08))
3((-9.53556e-08 -4.06907e-08 1.2566e-08) (-2.96719e-08 -1.25996e-08 1.03581e-08) (-2.7987e-09 -1.0275e-07 -6.15026e-09))
5((-3.68558e-09 -1.06268e-07 -1.37487e-08) (-1.36128e-08 -1.68967e-07 -6.28754e-08) (-7.65034e-08 5.1779e-08 5.42134e-08) (1.37734e-07 6.77851e-08 -3.40557e-08) (1.12003e-07 4.71672e-08 4.81863e-08))
4((7.2807e-08 3.36894e-08 8.21089e-08) (1.84354e-07 9.05833e-08 2.02697e-08) (7.65034e-08 -5.1779e-08 -5.42134e-08) (-6.12063e-08 4.30898e-08 -5.16107e-08))
4((-1.84354e-07 -9.05833e-08 -2.02697e-08) (-3.00376e-08 2.14229e-08 3.79008e-08) (-3.25899e-08 -1.53169e-08 1.32945e-08) (1.18503e-07 -8.30511e-08 4.81459e-08))
2((2.3762e-09 2.42421e-09 -4.48403e-09) (3.25899e-08 1.53169e-08 -1.32945e-08))
3((-1.31947e-07 -5.70143e-08 9.99388e-09) (-1.03623e-07 -4.74963e-08 1.13146e-08) (-3.14176e-08 2.37293e-08 2.57974e-09))
3((1.03623e-07 4.74963e-08 -1.13146e-08) (-5.35714e-09 -3.22193e-09 -1.42354e-09) (0 0 0))
4((-1.26714e-07 -7.61788e-08 6.2548e-10) (2.08377e-08 4.05053e-11 -7.49475e-10) (-5.73527e-09 1.90741e-08 2.03179e-10) (0 0 0))
3((5.35714e-09 3.22193e-09 1.42354e-09) (6.20297e-09 -4.68835e-09 -3.67066e-12) (5.54374e-10 -3.89398e-09 -2.645e-11))
0()
2((8.70521e-07 3.02192e-07 1.95927e-08) (-8.24867e-08 1.05562e-07 2.21483e-08))
3((-4.50805e-07 5.6974e-07 -1.27381e-08) (1.24216e-08 -6.89609e-08 -9.83757e-09) (-8.70521e-07 -3.02192e-07 -1.95927e-08))
5((-3.11424e-07 6.66474e-07 -1.05961e-08) (3.09364e-07 5.35331e-07 -6.79139e-08) (-2.27644e-08 3.85117e-07 2.71913e-08) (-2.53857e-08 4.73456e-10 -4.10734e-09) (1.06115e-09 -2.40292e-10 2.97885e-09))