/*--------------------------------*- C++ -*----------------------------------*\
  =========                 |
  \\      /  F ield         | OpenFOAM: The Open Source CFD Toolbox
   \\    /   O peration     | Website:  https://openfoam.org
    \\  /    A nd           | Version:  8
     \\/     M anipulation  |
\*---------------------------------------------------------------------------*/
FoamFile
{
    version     2.0;
    format      ascii;
    class       vectorFieldField;
    location    "0/lagrangian/kinematicCloud";
    object      collisionRecordsWallData;
}
// * * * * * * * * * * * * * * * * * * * * * * * * * * * * * * * * * * * * * //


3300
(
0()
1((1.306e-24 4.53683e-08 4.60875e-09))
2((8.16698e-25 -2.46418e-07 -4.03123e-09) (0 0 0))
1((0 0 0))
1((9.11418e-27 8.33341e-09 2.86566e-09))
0()
2((-1.36711e-23 -1.11379e-07 4.82573e-11) (0 0 0))
2((-5.54984e-25 -9.30352e-08 1.09264e-08) (0 0 0))
0()
0()
2((2.3716e-27 -2.98229e-08 -1.89502e-09) (0 0 0))
2((2.45886e-23 -1.07465e-07 1.06021e-08) (2.47074e-10 3.77774e-09 0))
1((0 0 0))
1((-1.47249e-09 2.15329e-09 -1.18736e-24))
1((1.17472e-23 -1.15813e-07 2.06457e-09))
1((0 0 0))
1((4.13229e-09 1.15973e-09 4.99018e-25))
2((-9.71271e-25 -2.1687e-08 -7.79394e-09) (7.0945e-10 2.05569e-09 -1.01161e-25))
2((7.28872e-25 -6.29166e-08 -9.278e-09) (-6.86547e-10 4.48583e-09 7.55384e-26))
1((3.15151e-25 2.47287e-08 -1.02138e-09))
1((3.51086e-24 9.97391e-10 -4.35218e-09))
2((5.29379e-26 -2.03092e-08 -1.81479e-09) (0 0 0))
2((-2.7424e-24 2.88204e-08 3.22138e-09) (0 0 0))
0()
1((0 0 0))
0()
0()
0()
0()
1((-4.89532e-24 -9.93876e-08 8.51329e-09))
0()
0()
0()
1((-3.0594e-27 -5.71539e-08 1.32362e-09))
2((-6.93746e-09 -1.37406e-08 6.88297e-24) (5.63057e-08 -3.25081e-08 2.19709e-09))
2((-4.19738e-07 2.42336e-07 -1.98442e-09) (1.90788e-09 -1.53878e-08 3.45058e-26))
2((6.54764e-08 -3.78028e-08 -1.54144e-10) (-2.17972e-09 -2.77418e-10 1.74877e-25))
1((-6.60753e-10 1.12334e-09 2.321e-25))
0()
2((1.63592e-24 2.47591e-08 -4.573e-09) (-1.29968e-09 4.38863e-09 1.21475e-25))
0()
1((-9.0513e-09 1.92493e-09 -5.00833e-24))
1((0 0 0))
1((5.72398e-23 2.9967e-07 -9.51309e-09))
1((-1.35287e-08 6.46157e-09 1.54367e-24))
1((8.1846e-09 -2.23109e-09 -7.012e-25))
1((-2.389e-23 -3.17517e-08 -1.24586e-09))
2((4.44679e-24 -1.08778e-09 -1.56261e-08) (0 0 0))
2((4.69959e-24 -1.03032e-08 -3.6062e-09) (-1.99563e-09 3.89512e-09 1.01274e-25))
1((0 0 0))
0()
1((-6.07904e-24 -2.54462e-07 1.15737e-08))
1((3.58625e-23 2.79589e-09 1.04646e-08))
1((-7.92321e-09 9.60875e-09 -6.79473e-25))
1((9.92932e-09 1.16707e-08 -4.4151e-25))
2((1.22147e-24 -1.0506e-08 1.79988e-08) (2.18447e-09 -1.34465e-08 1.22789e-25))
2((6.07997e-24 3.92192e-08 1.32702e-08) (-1.4381e-09 3.24533e-09 5.11052e-26))
0()
1((0 0 0))
2((-6.48241e-25 -1.43235e-07 -5.76206e-09) (-7.86825e-10 5.65031e-09 -1.78929e-23))
1((0 0 0))
0()
2((-4.31923e-24 4.97816e-08 -2.13409e-09) (0 0 0))
2((-1.29415e-24 -6.28285e-08 -1.48368e-08) (0 0 0))
0()
1((1.91208e-25 -4.12798e-08 3.41936e-09))
0()
0()
1((0 0 0))
1((0 0 0))
0()
1((4.47572e-09 -3.33791e-09 -1.57536e-25))
1((-2.73589e-09 -1.83013e-09 0))
1((0 0 0))
0()
0()
0()
0()
1((0 0 0))
1((0 0 0))
1((3.23842e-09 2.83138e-09 0))
0()
0()
0()
1((0 0 0))
0()
1((0 0 0))
1((0 0 0))
0()
0()
0()
0()
0()
1((0 0 0))
1((0 0 0))
1((0 0 0))
0()
0()
0()
0()
1((1.86604e-25 1.76411e-08 3.14522e-11))
0()
0()
0()
0()
2((-1.80137e-07 1.04002e-07 -3.7876e-08) (-3.15589e-09 -4.49312e-09 7.04674e-25))
1((-4.34964e-09 2.57193e-10 -1.3483e-24))
1((3.07636e-09 -2.68256e-09 1.06353e-24))
1((1.72458e-09 2.01073e-09 1.47072e-25))
1((1.93126e-10 -6.75698e-11 0))
1((-3.58952e-09 -7.10694e-10 -6.85969e-25))
1((5.14497e-09 1.02676e-08 -8.91547e-25))
1((-1.19868e-09 -2.87785e-09 -2.77184e-25))
0()
0()
1((6.04646e-09 1.08715e-08 -1.75708e-24))
0()
0()
1((6.40022e-09 -1.01219e-08 1.86656e-24))
1((0 0 0))
1((5.22787e-09 -5.33188e-09 -2.23181e-25))
1((7.04075e-09 -4.12882e-09 -1.22347e-24))
1((6.39594e-10 -1.52776e-09 -1.05824e-25))
1((6.50646e-11 -7.18922e-10 0))
1((7.43518e-09 -1.36331e-08 0))
1((-4.02756e-09 -4.08181e-09 0))
1((7.75013e-09 -1.02759e-08 0))
1((2.04542e-10 4.12669e-09 1.57486e-25))
1((-8.46125e-10 -1.62264e-09 0))
0()
1((0 0 0))
1((0 0 0))
1((0 0 0))
0()
0()
0()
0()
1((3.40326e-10 3.31571e-09 0))
1((0 0 0))
1((0 0 0))
1((0 0 0))
1((0 0 0))
0()
1((0 0 0))
0()
1((0 0 0))
1((1.39188e-09 5.25406e-09 0))
1((-3.27996e-09 3.03282e-09 0))
1((0 0 0))
0()
0()
0()
1((0 0 0))
1((0 0 0))
1((0 0 0))
1((6.30447e-09 -1.85552e-09 0))
0()
0()
0()
0()
0()
0()
0()
0()
1((-2.63924e-09 -3.75701e-09 0))
0()
0()
1((0 0 0))
0()
0()
0()
0()
0()
0()
0()
1((0 0 0))
2((6.32871e-09 -3.65388e-09 5.20728e-09) (6.45768e-10 -5.63176e-09 -7.72347e-26))
2((-9.94379e-08 5.74105e-08 -4.42413e-09) (-5.10389e-09 -4.86253e-09 -7.2146e-25))
1((-9.45517e-10 7.91495e-10 -2.00638e-24))
1((-6.20773e-09 6.91687e-10 5.92132e-27))
1((-2.8384e-09 -3.98712e-09 1.09903e-25))
1((1.59365e-09 -3.26197e-10 0))
1((-7.26641e-09 -8.61141e-09 4.0297e-24))
0()
1((4.57375e-09 -2.24869e-08 -7.9647e-25))
1((2.22937e-09 -2.38823e-09 0))
1((2.21326e-09 -6.24761e-09 -1.35746e-24))
1((-2.07601e-08 2.65206e-10 6.26885e-24))
0()
1((0 0 0))
1((0 0 0))
0()
0()
1((7.01231e-09 8.74957e-09 1.31848e-24))
1((-1.01336e-09 6.31138e-09 1.54816e-25))
1((7.04617e-09 -1.91776e-08 -1.67342e-24))
1((1.31644e-08 -7.70573e-09 5.87673e-25))
1((0 0 0))
1((5.12693e-09 6.70657e-09 0))
0()
1((5.62051e-09 -9.29959e-09 -1.22028e-25))
1((0 0 0))
1((-6.38775e-09 5.79104e-09 0))
1((0 0 0))
1((4.62492e-09 -6.0169e-09 0))
1((0 0 0))
1((0 0 0))
1((-8.74842e-09 -1.3848e-08 5.07587e-24))
1((-4.7055e-09 -7.2055e-09 0))
0()
0()
0()
1((0 0 0))
1((6.13592e-10 4.19055e-09 -7.20705e-25))
1((0 0 0))
0()
1((-1.37642e-09 -2.35764e-09 0))
1((-1.10393e-09 -4.83429e-09 -4.50813e-25))
0()
1((2.73045e-09 1.57915e-09 0))
1((-9.83503e-10 9.78446e-10 0))
0()
1((0 0 0))
1((0 0 0))
0()
1((0 0 0))
1((2.99766e-09 7.25895e-09 -1.71819e-24))
1((-4.10514e-09 -8.84068e-09 0))
1((-2.57199e-09 -1.16813e-08 0))
1((2.17856e-09 7.21504e-09 0))
1((0 0 0))
1((0 0 0))
1((0 0 0))
1((0 0 0))
0()
0()
0()
1((0 0 0))
1((2.06719e-09 6.08621e-09 0))
0()
1((0 0 0))
0()
0()
0()
0()
0()
0()
2((3.20035e-07 -1.84772e-07 1.15072e-08) (4.04748e-09 -7.33767e-09 4.52012e-24))
1((-1.20972e-08 1.11788e-08 -7.43433e-24))
1((-4.7015e-09 -1.77577e-08 -9.85382e-24))
0()
1((-6.39083e-10 -9.21515e-09 1.47023e-24))
1((1.02809e-09 -4.59685e-09 1.6187e-25))
1((4.84626e-09 -5.35819e-09 0))
1((-2.94442e-09 -1.59589e-09 0))
1((-1.27281e-08 -2.44447e-09 0))
1((-5.06776e-09 8.72079e-09 -4.20456e-24))
0()
1((-1.02935e-08 1.4452e-08 2.28033e-24))
0()
1((-3.37545e-09 4.26388e-09 0))
1((-5.09112e-09 -3.80862e-09 0))
1((-1.33223e-08 6.30179e-09 -3.73844e-24))
1((-1.28836e-08 6.23138e-09 -3.62738e-24))
1((-3.01136e-09 2.47913e-10 0))
0()
0()
1((-3.68304e-09 -4.44342e-09 0))
0()
1((-5.94062e-09 -8.29444e-09 0))
1((-2.31e-09 -2.06111e-09 0))
1((6.07889e-10 -1.35916e-09 0))
0()
1((0 0 0))
0()
1((0 0 0))
0()
1((0 0 0))
1((-2.54536e-09 -1.21364e-09 -2.93464e-24))
0()
0()
1((0 0 0))
0()
0()
1((1.39169e-09 6.57641e-09 0))
1((1.8609e-10 -2.69577e-09 0))
0()
1((2.07029e-09 -1.0832e-09 0))
0()
1((1.90778e-09 -3.34919e-09 0))
0()
0()
1((0 0 0))
1((0 0 0))
1((0 0 0))
1((6.41421e-09 9.07025e-10 0))
1((3.55735e-09 -7.3619e-09 0))
1((0 0 0))
0()
1((4.26586e-10 5.38389e-09 0))
1((0 0 0))
0()
0()
0()
0()
0()
0()
0()
1((0 0 0))
1((0 0 0))
0()
0()
0()
0()
0()
0()
0()
0()
1((3.97629e-09 -2.29571e-09 3.68195e-09))
0()
1((-4.32282e-09 5.14261e-09 -1.17916e-25))
1((2.40063e-08 -2.44077e-08 1.30743e-24))
1((-1.67515e-09 -2.31149e-08 -9.65615e-25))
1((-1.60591e-08 7.23967e-10 -2.84142e-24))
1((-2.02702e-08 -9.8067e-09 -4.3609e-25))
1((3.64528e-09 -4.76165e-09 -7.64852e-26))
1((1.16448e-09 2.65722e-09 -4.30968e-24))
1((-1.22629e-08 7.64783e-10 -4.35803e-25))
1((-3.79734e-09 -1.6236e-09 0))
1((1.77702e-08 -2.7204e-09 0))
1((-2.27159e-09 -2.05327e-08 5.93563e-24))
1((1.73398e-09 -3.43809e-09 4.36893e-25))
1((4.32803e-09 -2.15211e-10 -6.50966e-25))
1((-1.38647e-08 -1.14719e-08 0))
1((-8.38672e-10 -1.83941e-10 0))
1((3.66606e-09 -1.51963e-08 9.6087e-25))
1((-1.00701e-11 -1.77385e-08 0))
1((2.27598e-09 -1.8477e-08 0))
1((-5.13848e-09 -4.83454e-09 0))
1((-1.27314e-08 -4.55961e-09 -3.74511e-24))
1((-4.5255e-09 -1.5227e-09 0))
0()
0()
1((0 0 0))
0()
1((-4.18151e-09 -5.86946e-09 -1.50904e-24))
0()
1((0 0 0))
1((7.03586e-09 1.36811e-09 0))
0()
1((-1.71894e-09 -1.36236e-09 0))
1((-4.98146e-09 -3.44944e-09 -9.98406e-25))
1((-2.97528e-10 4.80275e-10 0))
1((0 0 0))
1((0 0 0))
0()
1((7.87983e-10 1.32177e-09 0))
1((0 0 0))
1((3.77147e-09 -1.19771e-09 0))
0()
1((4.21457e-09 -2.32806e-09 0))
1((0 0 0))
1((3.51221e-09 -1.38926e-09 0))
1((0 0 0))
1((0 0 0))
0()
1((9.85893e-10 -6.43473e-09 0))
1((2.84121e-09 -1.61131e-09 0))
1((5.59517e-09 -7.36293e-09 0))
1((1.90954e-10 -1.68127e-09 0))
1((0 0 0))
1((4.26756e-09 1.35945e-10 0))
1((0 0 0))
1((3.24625e-10 -3.15599e-09 0))
1((4.5867e-09 4.42328e-09 0))
1((-1.01866e-09 1.01195e-09 0))
0()
0()
0()
1((8.29782e-09 1.36703e-09 0))
1((6.22125e-09 -8.61888e-10 0))
1((0 0 0))
0()
0()
0()
0()
0()
0()
0()
1((-5.14064e-10 2.96795e-10 -4.96752e-10))
2((3.72119e-08 -2.14843e-08 -4.36241e-08) (0 0 0))
1((1.95917e-08 -1.13113e-08 -1.51531e-09))
0()
1((6.55664e-10 6.51109e-09 1.78482e-24))
1((1.97705e-08 -5.51066e-09 -2.10724e-24))
0()
1((-1.00285e-09 -2.33259e-09 1.99384e-24))
1((-1.07351e-08 -4.35171e-10 -3.0453e-26))
0()
0()
0()
1((7.18522e-09 -3.37058e-09 0))
1((5.02483e-09 1.71517e-08 8.04327e-24))
1((1.57326e-08 1.47831e-08 -1.29396e-24))
1((-1.03607e-09 -2.94259e-09 0))
1((0 0 0))
1((5.58152e-09 -2.10978e-09 0))
1((4.17965e-09 3.2923e-09 0))
1((6.62432e-09 -5.02057e-09 1.13974e-24))
0()
0()
0()
0()
1((9.03971e-09 2.48338e-09 -1.71848e-25))
1((-8.03669e-09 1.44211e-09 1.62685e-24))
1((7.11904e-09 7.33962e-10 -1.1104e-24))
1((-1.2182e-09 1.84666e-09 0))
1((0 0 0))
1((0 0 0))
0()
1((1.64697e-08 6.23695e-09 0))
1((-1.73529e-09 -1.63079e-09 0))
0()
1((0 0 0))
0()
0()
0()
1((9.35908e-10 -4.02884e-10 0))
1((8.5494e-09 8.98711e-09 0))
1((0 0 0))
1((-7.44503e-10 -1.25541e-08 -6.08936e-25))
0()
0()
1((0 0 0))
1((0 0 0))
1((0 0 0))
1((-1.48633e-09 -7.83253e-09 0))
1((0 0 0))
1((5.70619e-09 -4.18287e-09 0))
1((9.44859e-10 -7.51116e-09 0))
1((-3.54496e-09 -8.89869e-09 0))
1((3.70312e-10 -4.37314e-09 0))
1((-4.18862e-09 -3.94168e-09 0))
1((-3.92702e-09 -2.08799e-09 0))
1((-2.19416e-09 -3.34082e-09 0))
1((0 0 0))
1((2.98506e-09 -1.94712e-10 0))
0()
1((2.85756e-09 8.67136e-09 0))
0()
0()
0()
0()
0()
1((0 0 0))
0()
0()
0()
0()
0()
2((2.86951e-07 -1.65672e-07 1.42104e-08) (5.10195e-09 -2.77835e-09 0))
1((-1.35711e-08 -5.37008e-09 0))
0()
1((-1.7985e-08 -4.83053e-09 -1.20703e-23))
0()
0()
1((1.51469e-08 -2.00373e-08 -8.9993e-24))
1((1.70691e-10 -1.37808e-08 -9.92609e-25))
1((5.95856e-09 -9.2504e-09 -2.77389e-24))
0()
1((1.22464e-09 1.63262e-08 3.21199e-24))
1((1.59412e-09 -1.8817e-08 -1.88909e-24))
1((-4.88174e-09 -3.40705e-09 4.17388e-25))
1((-8.78243e-09 -4.43569e-09 3.79444e-25))
1((0 0 0))
1((1.79646e-08 -1.7835e-08 3.33348e-24))
0()
1((4.11866e-10 -4.86718e-09 0))
0()
1((0 0 0))
1((0 0 0))
1((0 0 0))
0()
1((-9.08384e-09 -5.8057e-09 0))
1((8.33762e-09 -8.98752e-09 0))
1((6.10047e-09 -4.49279e-09 0))
1((7.3172e-11 -1.30114e-09 0))
1((0 0 0))
1((-1.59948e-08 -6.50188e-09 0))
1((3.21882e-09 -5.48021e-09 4.62611e-24))
1((0 0 0))
1((-6.78941e-09 -2.80175e-09 0))
1((1.67752e-09 -3.09929e-09 0))
1((-7.98119e-09 -2.42469e-09 0))
1((-2.54993e-09 -1.75681e-09 0))
0()
0()
0()
1((-9.16647e-10 -3.04042e-09 0))
1((6.58164e-09 -3.18433e-09 1.04862e-25))
1((6.21842e-09 -2.26548e-09 0))
1((-2.28811e-10 -3.92922e-09 0))
1((0 0 0))
0()
1((0 0 0))
1((0 0 0))
1((0 0 0))
1((1.09221e-09 -5.91156e-09 0))
1((-4.02562e-10 -2.68059e-09 0))
1((0 0 0))
1((3.00103e-10 -1.14985e-08 0))
1((0 0 0))
1((-3.3879e-09 -1.68041e-09 0))
0()
0()
1((6.70451e-09 -1.52389e-08 3.25943e-24))
1((-8.7854e-09 -1.32543e-08 0))
1((1.93289e-09 -4.55774e-09 1.12735e-24))
0()
0()
0()
0()
0()
0()
1((0 0 0))
0()
0()
0()
0()
0()
0()
1((1.46175e-07 -8.43942e-08 5.84038e-09))
1((0 0 0))
1((7.22841e-09 -1.96156e-08 -1.43755e-24))
0()
1((3.08053e-08 2.26469e-08 2.33954e-24))
0()
1((2.57741e-08 -1.83976e-08 1.55314e-25))
1((-6.51945e-09 4.48053e-09 -3.43337e-24))
1((-2.76306e-09 -4.35502e-10 -1.64954e-25))
1((4.04294e-09 -1.90647e-09 1.79978e-25))
1((0 0 0))
1((0 0 0))
1((2.54366e-09 -6.95287e-09 6.9606e-25))
1((5.77286e-09 -1.98936e-08 -3.21973e-25))
1((-6.80724e-09 -1.08725e-08 9.74138e-24))
0()
1((-5.69984e-09 -3.0209e-08 3.408e-23))
1((1.0535e-08 -1.3419e-09 -1.05676e-23))
0()
1((8.41467e-09 2.28657e-09 0))
1((-7.10044e-09 -1.47161e-09 1.4637e-24))
1((-7.7674e-09 9.45195e-09 2.00293e-24))
0()
0()
1((0 0 0))
1((0 0 0))
1((-4.24421e-09 -3.40371e-09 0))
1((-9.27816e-09 6.27194e-09 2.47613e-24))
1((8.90948e-10 -1.89243e-08 2.7732e-24))
1((0 0 0))
1((-3.715e-09 -1.57131e-09 0))
1((0 0 0))
0()
0()
1((-7.45562e-10 -8.90859e-09 0))
0()
1((8.31072e-11 -2.18112e-10 0))
1((-9.9226e-09 -3.91459e-09 1.09073e-26))
1((0 0 0))
1((-1.20426e-08 -1.13517e-08 1.08019e-25))
1((9.60415e-09 -1.36691e-08 0))
1((4.48157e-10 -1.08486e-08 0))
1((3.03374e-09 -1.23546e-08 0))
1((2.2706e-10 -5.40088e-09 -5.18016e-25))
1((5.14232e-09 -9.11369e-09 0))
1((8.23144e-09 -1.0843e-08 0))
0()
0()
0()
1((0 0 0))
0()
1((0 0 0))
1((1.5094e-09 -6.47472e-09 0))
1((0 0 0))
1((0 0 0))
1((0 0 0))
1((2.38208e-09 -1.90334e-09 0))
1((2.91744e-09 -2.28613e-09 0))
0()
1((0 0 0))
0()
0()
1((0 0 0))
0()
0()
0()
0()
0()
0()
1((0 0 0))
0()
1((1.07781e-07 -6.22273e-08 -1.07335e-09))
1((4.32009e-09 -7.42885e-10 0))
1((0 0 0))
1((0 0 0))
1((3.94228e-09 -1.02741e-08 1.61339e-23))
1((2.09914e-08 -2.61071e-08 0))
1((5.46161e-09 -4.15172e-10 0))
1((2.76534e-10 -4.43245e-09 0))
1((-5.34879e-09 -1.60086e-08 -5.28067e-24))
1((-3.56523e-10 -1.83982e-09 0))
1((2.85664e-09 -6.34476e-09 0))
1((0 0 0))
0()
1((3.99354e-09 -1.48991e-08 7.76058e-25))
1((9.30116e-09 -1.72595e-08 3.52438e-24))
0()
1((4.40645e-09 -1.38012e-09 -8.01572e-25))
1((-7.97382e-09 -1.61914e-08 2.80248e-24))
0()
1((1.21471e-09 -8.55601e-10 -5.62401e-24))
1((-1.29121e-08 -1.08437e-08 8.59076e-24))
1((-1.04466e-09 -8.00963e-09 0))
1((6.10972e-09 -1.03123e-08 1.03968e-24))
0()
1((-3.36022e-09 3.64023e-10 0))
1((1.76826e-09 -1.13937e-08 0))
0()
0()
1((0 0 0))
1((9.68319e-09 -1.83193e-09 0))
0()
0()
1((0 0 0))
1((-5.76883e-09 -1.80601e-08 1.05115e-24))
1((-9.62771e-09 -3.32118e-09 1.49289e-23))
1((0 0 0))
0()
1((-1.23637e-09 -1.76998e-08 1.1543e-23))
1((-1.80506e-08 -1.58413e-08 0))
1((4.81084e-09 -2.39556e-08 0))
1((0 0 0))
1((1.57456e-09 -4.77185e-09 0))
1((0 0 0))
0()
1((2.2877e-09 -6.36092e-09 0))
1((1.39077e-09 -5.16169e-09 0))
1((1.40962e-09 -5.32159e-09 0))
1((0 0 0))
1((3.18735e-09 -3.66348e-09 0))
0()
1((7.20154e-09 -8.21253e-09 0))
1((0 0 0))
1((-2.05504e-09 -6.0096e-09 0))
1((4.08858e-09 -4.52953e-09 0))
0()
1((0 0 0))
1((-8.11189e-09 1.06077e-09 0))
1((-1.85965e-09 3.10733e-09 0))
0()
1((0 0 0))
0()
1((0 0 0))
1((0 0 0))
0()
0()
0()
0()
0()
0()
0()
0()
2((2.84336e-08 -1.64162e-08 3.80793e-09) (9.35118e-09 -4.90936e-09 0))
0()
1((-6.4377e-09 -3.01081e-09 0))
1((-2.79243e-08 -2.43045e-08 6.88593e-24))
1((-1.46433e-08 -3.34856e-08 5.21138e-24))
1((-9.14959e-09 -2.13376e-09 6.31165e-24))
1((-2.8022e-08 2.58276e-09 -2.43279e-24))
1((-1.16072e-10 -2.79174e-10 0))
0()
1((-4.98114e-09 -5.5742e-09 -1.85421e-24))
1((2.29303e-09 -3.70483e-09 0))
0()
0()
1((1.1039e-08 -5.8965e-09 -3.97063e-24))
0()
0()
1((1.0575e-08 1.26853e-08 -7.45323e-24))
1((-6.61119e-09 -1.04788e-09 -2.14711e-24))
1((-5.81451e-09 -1.61592e-09 0))
1((1.89882e-08 -2.64692e-09 -9.16549e-25))
1((-1.56461e-09 -2.29786e-08 0))
1((2.58022e-09 -2.56364e-08 9.66463e-25))
1((-4.62769e-09 -1.78624e-09 0))
1((4.57097e-09 -6.86693e-09 -1.85114e-24))
1((-2.60706e-09 -1.02854e-08 0))
1((0 0 0))
0()
0()
1((3.92783e-09 -3.25177e-09 0))
1((-1.17961e-09 3.50819e-09 0))
1((9.63528e-09 2.49658e-09 -1.6715e-24))
1((3.90664e-09 -2.53331e-09 0))
1((9.48235e-09 -9.79162e-09 0))
1((0 0 0))
1((0 0 0))
1((9.79794e-09 -7.93517e-09 0))
1((-3.47127e-09 -8.84625e-09 -9.41945e-24))
1((-1.50204e-09 1.37369e-09 -1.81113e-25))
1((-7.64742e-10 -3.06481e-09 0))
1((0 0 0))
0()
1((0 0 0))
0()
1((8.25253e-09 -1.52424e-08 1.36432e-24))
1((-2.71347e-09 -1.61235e-09 0))
0()
1((-2.58224e-09 -8.35483e-09 4.06828e-24))
1((9.47196e-10 -2.18822e-09 0))
1((-2.34477e-09 -3.20761e-09 0))
1((-1.07253e-09 -2.54948e-09 0))
1((0 0 0))
0()
1((0 0 0))
0()
1((9.31348e-12 -9.75407e-09 0))
1((5.16513e-09 1.1286e-10 0))
1((5.43816e-09 -5.74362e-09 0))
1((0 0 0))
0()
0()
0()
0()
1((0 0 0))
0()
0()
0()
0()
0()
0()
1((9.19529e-09 -1.19911e-08 4.03131e-24))
1((-1.1392e-08 -4.9845e-09 1.17074e-24))
0()
1((-1.17095e-09 -3.72215e-09 0))
1((-4.67973e-09 -5.11163e-09 0))
0()
0()
1((-3.42368e-09 3.34752e-09 0))
0()
1((0 0 0))
1((0 0 0))
0()
1((0 0 0))
1((0 0 0))
1((0 0 0))
1((-3.94026e-09 3.58032e-09 0))
0()
0()
1((0 0 0))
0()
1((0 0 0))
0()
0()
0()
0()
0()
1((0 0 0))
1((1.58539e-08 -1.74587e-08 0))
1((6.23023e-09 -1.44694e-08 0))
1((4.27587e-10 -8.85339e-09 0))
1((1.38595e-08 -1.29603e-08 0))
1((5.34006e-11 -1.56968e-08 0))
0()
1((0 0 0))
1((0 0 0))
0()
0()
0()
0()
0()
0()
1((0 0 0))
1((-4.47925e-09 3.00312e-09 0))
1((0 0 0))
0()
1((0 0 0))
1((0 0 0))
0()
1((0 0 0))
0()
0()
0()
0()
0()
1((0 0 0))
1((0 0 0))
1((-1.07402e-09 -5.14028e-09 0))
1((0 0 0))
1((0 0 0))
1((0 0 0))
1((0 0 0))
0()
1((0 0 0))
0()
0()
1((0 0 0))
0()
0()
0()
0()
0()
1((0 0 0))
0()
0()
1((-2.17151e-09 2.61888e-08 3.95869e-24))
1((1.0205e-08 -3.52125e-09 -3.32199e-24))
1((-1.3332e-10 -6.86788e-09 0))
1((3.04984e-08 -2.2466e-08 -4.19144e-23))
1((4.08103e-09 -1.40464e-08 -7.66884e-24))
1((-8.49061e-09 -1.00884e-09 4.25532e-25))
0()
1((-4.83109e-09 5.30161e-09 0))
1((-3.67915e-09 -3.53715e-09 0))
1((9.62115e-09 -3.53043e-09 4.58025e-24))
1((1.11599e-08 -1.7092e-08 -2.86363e-24))
1((7.55103e-09 -1.33978e-09 0))
1((8.28675e-09 5.90068e-09 1.02682e-25))
1((-2.14158e-10 -7.03254e-10 0))
1((0 0 0))
1((8.03119e-09 -1.48429e-08 -5.75603e-24))
1((2.54117e-10 6.53377e-09 2.90185e-24))
1((0 0 0))
1((-2.37577e-08 -2.95263e-09 -1.03215e-24))
0()
1((-3.73545e-09 3.23151e-09 0))
1((1.15745e-08 1.27335e-08 7.91201e-24))
1((2.48039e-10 -5.60903e-09 0))
1((-5.25168e-09 -1.62685e-08 0))
1((1.93619e-09 -1.23326e-08 3.22981e-24))
1((7.80781e-09 -6.16944e-09 -6.6132e-24))
1((1.54812e-08 1.64554e-09 0))
1((0 0 0))
1((0 0 0))
0()
0()
1((-9.30891e-09 -3.23635e-09 0))
1((4.69325e-09 -4.37824e-09 5.80414e-25))
0()
1((4.11967e-09 -3.60272e-09 0))
1((5.36832e-09 -3.4505e-09 -1.04958e-25))
1((6.4494e-11 -4.08132e-09 0))
1((-1.50402e-08 2.03996e-08 -1.82457e-23))
1((7.50481e-10 -1.77624e-09 5.58301e-25))
1((3.06032e-09 -3.25468e-09 0))
1((2.0968e-09 7.14508e-09 0))
1((0 0 0))
1((1.01851e-10 7.41522e-09 7.38925e-25))
1((-7.1833e-09 3.39899e-09 -1.05476e-25))
1((-3.4399e-08 -6.73815e-10 -1.8635e-23))
1((-1.94618e-08 9.98454e-09 1.38805e-23))
0()
0()
1((-3.68434e-09 -3.84662e-09 2.72304e-24))
1((-1.01011e-08 -1.55808e-08 4.14133e-24))
1((-5.67823e-10 -1.44788e-08 3.20527e-25))
0()
1((-4.10478e-09 -3.5839e-09 3.02662e-24))
0()
1((-3.5321e-09 -2.50477e-09 0))
0()
0()
1((0 0 0))
0()
0()
1((0 0 0))
1((9.44696e-09 1.83091e-08 -4.01623e-24))
0()
1((6.44745e-09 1.06686e-09 2.87114e-24))
1((5.73929e-09 1.65077e-08 -9.87819e-25))
1((1.06928e-08 -2.80043e-08 -4.3998e-24))
0()
1((-1.58331e-08 -1.15726e-08 -9.93102e-25))
1((2.02202e-08 -1.48223e-08 0))
1((0 0 0))
0()
0()
1((-1.08659e-08 -2.57689e-08 -5.40381e-24))
1((6.98344e-09 -2.24791e-08 1.63147e-24))
1((7.48285e-10 -5.4467e-09 -6.36496e-25))
1((-1.46905e-08 -8.74668e-09 -3.03189e-24))
1((9.05383e-09 -9.78224e-09 0))
0()
0()
0()
1((1.11897e-08 -8.48828e-09 9.80771e-26))
1((-2.33657e-09 -1.18485e-09 0))
1((-6.0287e-11 -3.54966e-08 0))
1((-1.67811e-08 -1.27817e-08 0))
1((-4.40063e-10 -1.76033e-09 0))
0()
0()
0()
1((-1.62738e-09 -4.94992e-09 0))
2((4.87159e-07 -2.81261e-07 -2.74224e-10) (-3.03743e-09 -1.56524e-10 0))
1((-1.52317e-08 -6.41405e-09 0))
1((0 0 0))
0()
1((-1.72308e-08 -1.46923e-09 1.91212e-23))
1((-3.12291e-09 -2.71626e-09 3.34144e-24))
1((-9.50601e-09 -1.05931e-09 -6.59904e-25))
1((-1.28853e-09 -1.78547e-08 8.71837e-25))
1((1.40609e-08 4.13084e-09 9.22871e-25))
1((-1.41573e-08 -3.28354e-09 -5.80604e-24))
1((1.64732e-08 -1.30337e-08 2.43402e-24))
1((0 0 0))
1((7.90747e-09 2.53087e-08 -4.48735e-24))
1((-4.17982e-10 -2.64885e-09 -1.10427e-24))
1((1.55387e-08 -1.82659e-08 0))
1((-8.74065e-10 -8.25412e-09 0))
1((-2.09459e-08 -2.70195e-08 -1.25502e-24))
1((-7.71494e-09 -2.15622e-08 3.84796e-24))
1((8.09896e-09 -9.02313e-09 -3.09875e-24))
1((-9.67838e-10 -8.73914e-09 -3.06946e-24))
0()
1((-7.51163e-09 -1.28478e-09 0))
1((2.26057e-09 3.61111e-09 0))
1((-1.31073e-09 9.16983e-10 0))
1((-5.1069e-09 -6.52622e-09 -7.16153e-24))
1((5.79712e-10 -1.83515e-09 0))
1((7.73234e-09 1.08375e-08 0))
1((4.91517e-09 9.68293e-10 0))
1((-8.17465e-09 1.05456e-08 0))
0()
1((-1.03248e-08 2.88808e-08 -5.90535e-24))
1((2.51041e-09 8.45015e-10 0))
1((-3.0408e-09 -1.40289e-09 0))
1((9.22151e-09 1.34354e-11 0))
1((5.05746e-09 2.88723e-09 0))
1((4.86718e-09 -2.03152e-09 0))
0()
1((-3.11003e-09 3.71057e-09 0))
1((-4.01041e-09 -3.20304e-09 0))
1((1.45149e-09 -5.62952e-10 0))
0()
0()
0()
0()
1((0 0 0))
1((0 0 0))
1((3.0519e-09 3.39261e-09 0))
1((3.97483e-09 -2.07603e-09 0))
1((7.05201e-10 -5.0333e-09 0))
1((1.39253e-09 -6.20336e-09 0))
1((-3.37754e-09 -3.04805e-09 0))
0()
1((0 0 0))
1((0 0 0))
0()
0()
0()
0()
1((0 0 0))
0()
0()
1((0 0 0))
0()
0()
0()
0()
0()
0()
0()
2((1.82363e-07 -1.05287e-07 -3.82096e-09) (-1.78087e-09 -3.6937e-09 -6.48666e-25))
1((6.77219e-09 -9.92553e-09 8.04858e-26))
1((4.63625e-09 -6.30352e-09 0))
0()
0()
1((2.58865e-08 2.12728e-09 -4.86531e-24))
1((1.49711e-09 1.14162e-09 0))
1((-7.11236e-09 6.06945e-10 2.64474e-25))
1((1.04254e-09 -8.97336e-09 -3.70626e-25))
1((1.15841e-09 -9.26392e-10 0))
1((4.31406e-08 -3.53647e-08 -3.41315e-24))
1((-7.45712e-09 -1.37858e-08 -3.47704e-25))
1((5.12291e-09 -2.42312e-09 0))
1((1.06315e-08 2.70475e-09 4.45601e-24))
0()
1((1.16685e-08 -1.37756e-08 9.18357e-24))
0()
1((2.80391e-09 -1.99774e-08 7.73339e-25))
1((-1.34166e-08 -1.16104e-09 -2.2841e-24))
1((2.08855e-08 -7.41705e-09 2.17136e-24))
1((1.32713e-09 -3.07784e-09 -1.70207e-24))
1((5.11254e-09 7.0104e-10 0))
1((-1.5404e-08 -5.88879e-09 0))
0()
1((-4.66868e-09 -9.93888e-09 2.87233e-24))
1((6.14081e-10 -1.83368e-09 0))
1((-1.08871e-08 1.53787e-08 -1.87572e-23))
1((4.00775e-09 -3.45731e-09 0))
1((-8.62577e-10 4.75819e-09 -6.92607e-24))
0()
1((1.72236e-08 -5.80354e-09 0))
1((3.72738e-09 -1.25276e-09 0))
1((0 0 0))
0()
1((-7.11297e-09 -6.58457e-09 0))
1((2.48619e-09 1.11942e-09 0))
1((1.77538e-09 -9.24263e-10 0))
1((1.03023e-08 -4.30164e-09 0))
1((2.35602e-09 -4.05173e-09 0))
1((0 0 0))
1((0 0 0))
1((9.99891e-09 2.80115e-09 0))
0()
1((0 0 0))
0()
0()
0()
1((2.01868e-09 6.11875e-09 0))
0()
1((2.94615e-09 -4.06559e-09 0))
1((0 0 0))
1((-4.89782e-09 -4.8284e-10 0))
1((0 0 0))
1((0 0 0))
0()
0()
0()
1((0 0 0))
1((0 0 0))
0()
0()
0()
1((0 0 0))
1((0 0 0))
0()
1((0 0 0))
0()
1((0 0 0))
0()
0()
0()
1((-1.48433e-08 8.56978e-09 -1.24251e-09))
0()
0()
1((0 0 0))
1((0 0 0))
1((-3.72215e-09 -4.0052e-10 0))
1((-9.38355e-10 -2.30708e-10 0))
0()
1((-3.43312e-09 -7.79174e-09 1.41317e-25))
1((-1.50192e-08 2.06051e-09 -7.01133e-24))
1((1.037e-08 1.61747e-08 -7.02085e-25))
0()
1((-6.93489e-09 -1.48016e-09 1.30317e-23))
1((8.68907e-09 1.26297e-08 -2.22278e-24))
1((2.14047e-08 -4.39896e-09 9.79445e-24))
1((1.58288e-08 -1.13865e-08 -6.22937e-25))
1((9.0643e-09 -5.32505e-10 -3.05277e-24))
1((4.75902e-09 -2.64207e-09 3.95501e-24))
1((-8.09428e-09 1.51428e-11 -1.04664e-24))
1((-9.12151e-09 -5.60367e-09 2.07068e-24))
1((-4.96545e-09 -7.42539e-09 -1.36843e-23))
0()
0()
1((1.18107e-08 -1.10016e-09 0))
1((-4.52726e-09 -1.60475e-08 0))
1((-3.66248e-10 5.44522e-09 0))
0()
1((0 0 0))
1((2.67055e-08 1.31963e-08 0))
1((4.8436e-09 -1.70966e-09 0))
1((1.17502e-08 -1.07253e-10 0))
0()
1((7.45389e-09 -1.80459e-09 0))
1((2.47566e-09 -8.16863e-09 -3.09023e-25))
1((-3.62434e-09 1.66469e-09 0))
1((3.57683e-09 -2.48879e-09 0))
1((-2.01417e-09 -4.93913e-09 0))
1((1.30955e-09 2.15617e-09 0))
1((-4.08403e-09 -1.3176e-09 6.32064e-24))
1((8.69719e-09 -8.21546e-09 0))
1((8.27786e-09 -7.75088e-09 0))
0()
1((0 0 0))
0()
1((5.69103e-09 -1.38803e-09 0))
1((0 0 0))
1((0 0 0))
1((5.48084e-10 -1.35235e-09 0))
1((0 0 0))
0()
0()
0()
1((-4.61123e-09 -1.14822e-08 0))
0()
1((0 0 0))
0()
1((0 0 0))
1((0 0 0))
0()
1((0 0 0))
0()
0()
1((2.62985e-09 -3.77677e-09 0))
0()
0()
0()
0()
0()
0()
0()
0()
1((-6.62589e-09 -2.50919e-09 -5.47794e-24))
0()
0()
1((0 0 0))
0()
1((-1.61016e-10 1.44626e-09 0))
1((2.44507e-10 -3.55714e-10 0))
1((0 0 0))
0()
1((0 0 0))
0()
1((0 0 0))
1((3.79197e-09 1.74178e-09 0))
1((1.6799e-08 1.05844e-08 -5.70086e-24))
1((-2.50734e-08 2.526e-08 -1.43694e-24))
1((-1.51943e-08 -4.62916e-09 0))
1((3.72186e-09 -3.01987e-10 0))
1((1.6273e-09 -1.4274e-08 -7.05269e-24))
0()
1((5.80226e-10 -9.02094e-09 0))
1((7.8046e-09 -1.03632e-08 4.46006e-24))
1((3.76449e-09 -3.27722e-09 0))
1((-1.6158e-08 1.98834e-09 0))
1((7.19609e-09 5.08522e-09 0))
1((-1.79456e-08 1.38991e-09 0))
1((8.79204e-09 2.07516e-09 0))
1((-2.38673e-09 -1.12443e-09 0))
1((-1.94555e-09 2.18024e-09 1.34103e-24))
1((7.16373e-09 6.4197e-09 0))
0()
1((4.78908e-09 -1.04519e-09 0))
1((1.75635e-08 1.27524e-08 0))
1((9.58532e-09 3.24112e-09 0))
1((9.32356e-09 -1.2537e-09 0))
1((4.95808e-09 -2.66965e-09 0))
1((6.75852e-09 -8.71566e-09 -1.56633e-23))
1((0 0 0))
1((0 0 0))
1((1.33632e-09 1.09735e-09 0))
0()
1((0 0 0))
0()
0()
1((0 0 0))
1((0 0 0))
0()
1((0 0 0))
1((6.3323e-09 -7.84408e-09 0))
1((0 0 0))
0()
1((0 0 0))
0()
1((0 0 0))
0()
1((0 0 0))
1((0 0 0))
1((2.56609e-09 4.53509e-10 0))
0()
0()
1((0 0 0))
0()
0()
1((0 0 0))
0()
0()
0()
0()
0()
0()
0()
0()
1((-1.56297e-09 8.17027e-10 -1.60877e-24))
1((0 0 0))
1((2.25539e-09 -1.80998e-09 0))
1((1.62304e-08 7.01268e-10 0))
1((2.21465e-09 6.86349e-09 0))
0()
1((0 0 0))
1((0 0 0))
0()
1((1.91346e-09 1.52742e-10 0))
1((2.1471e-09 3.60017e-10 0))
0()
1((-5.00887e-11 -3.1636e-10 0))
1((-1.40985e-10 2.03132e-09 1.15346e-24))
1((-2.2773e-08 2.06278e-08 -1.60858e-23))
0()
1((2.09461e-09 5.3683e-10 0))
0()
1((0 0 0))
1((6.10806e-09 1.59756e-09 0))
1((8.19067e-10 4.90838e-09 7.26735e-26))
1((-1.88879e-08 -1.23269e-08 3.66449e-24))
1((-1.26084e-08 -4.62394e-09 -2.81522e-24))
1((1.02179e-08 1.27088e-08 -6.06273e-24))
1((-1.05272e-08 -2.7192e-09 0))
1((3.45886e-09 1.57078e-09 0))
1((0 0 0))
0()
1((1.86247e-09 -4.85781e-09 0))
0()
1((-4.42342e-10 -3.82855e-09 0))
1((2.03021e-08 -1.69862e-09 0))
1((0 0 0))
1((1.20704e-08 -4.86548e-09 0))
1((-9.92823e-10 -1.05546e-08 0))
1((0 0 0))
1((0 0 0))
1((3.5684e-09 -5.03085e-10 0))
0()
1((0 0 0))
1((3.44924e-09 4.68813e-11 0))
1((-1.19782e-10 -2.01663e-09 0))
1((0 0 0))
1((0 0 0))
1((0 0 0))
0()
1((0 0 0))
1((0 0 0))
1((0 0 0))
0()
0()
1((3.72044e-09 -1.00358e-08 0))
1((-1.00544e-09 -6.44165e-09 0))
1((0 0 0))
1((0 0 0))
1((0 0 0))
0()
1((0 0 0))
0()
1((0 0 0))
1((0 0 0))
0()
1((5.60165e-09 1.15535e-09 0))
1((-1.61664e-09 -3.55884e-09 0))
0()
0()
0()
0()
0()
0()
0()
2((5.0947e-09 -2.94143e-09 6.4246e-09) (-1.50163e-08 -7.05549e-09 1.55032e-23))
1((5.31878e-10 3.59287e-10 0))
1((-2.27721e-09 -1.23279e-09 0))
1((-6.94704e-09 1.67091e-09 0))
1((-2.64169e-09 2.87692e-09 0))
1((5.92573e-10 7.79195e-09 0))
0()
1((0 0 0))
1((0 0 0))
1((4.02626e-09 -8.35022e-09 0))
1((1.79831e-09 -1.34591e-08 -2.75407e-24))
1((-3.46506e-09 -1.44586e-09 0))
1((4.71817e-10 1.76157e-09 0))
1((7.01902e-11 5.82517e-09 -5.21621e-24))
1((-1.11407e-08 1.03071e-08 3.7463e-23))
1((0 0 0))
1((-5.93586e-09 -9.29407e-09 -3.86866e-25))
1((2.58266e-09 1.38256e-09 0))
1((0 0 0))
1((2.27698e-08 9.87173e-09 0))
1((3.92318e-09 4.10205e-09 -7.76687e-24))
1((-6.24642e-09 -2.53901e-09 -7.80877e-23))
0()
1((3.11804e-09 -1.11694e-09 0))
1((-1.57703e-09 -6.39098e-10 0))
1((-7.50159e-09 3.34027e-09 0))
1((-1.00121e-09 7.94846e-09 -2.1959e-24))
0()
0()
0()
1((-8.48747e-09 3.54853e-09 2.27403e-24))
1((1.94861e-08 -3.14488e-09 0))
0()
0()
1((-5.0106e-09 -4.64404e-10 0))
0()
1((4.80124e-09 -2.63303e-09 -2.22171e-23))
1((-2.81618e-09 1.3431e-12 0))
1((0 0 0))
0()
1((0 0 0))
1((2.66221e-09 -9.80279e-10 0))
1((7.08632e-09 -3.85141e-09 0))
1((6.2738e-09 -3.04109e-09 2.87312e-23))
1((2.79629e-09 -1.16064e-08 0))
1((0 0 0))
0()
1((0 0 0))
1((0 0 0))
1((0 0 0))
1((0 0 0))
1((0 0 0))
1((0 0 0))
1((0 0 0))
1((0 0 0))
0()
1((0 0 0))
0()
0()
1((0 0 0))
0()
0()
1((0 0 0))
1((0 0 0))
0()
0()
0()
0()
0()
0()
0()
0()
1((-1.14628e-10 -3.94457e-09 -4.62834e-24))
1((8.09697e-10 4.87143e-11 0))
1((1.97976e-08 5.21708e-09 1.56581e-23))
1((1.67833e-08 8.9412e-10 0))
1((0 0 0))
1((1.83251e-08 -4.16268e-09 0))
1((0 0 0))
0()
1((-4.75563e-09 -4.28819e-09 -1.06478e-23))
1((-4.61394e-09 -2.90555e-09 0))
0()
0()
1((-9.28681e-09 6.56413e-09 0))
1((1.17292e-09 -3.94451e-09 4.98616e-24))
1((0 0 0))
0()
1((-5.75252e-09 -5.79436e-09 -1.23045e-24))
1((-5.7984e-09 -2.99908e-09 -1.54463e-23))
1((1.649e-08 -2.01268e-08 0))
1((0 0 0))
1((6.54462e-10 -2.21418e-08 0))
0()
1((0 0 0))
1((-4.57854e-09 5.33018e-09 0))
1((4.71714e-09 -6.44e-09 0))
0()
1((1.42721e-08 2.83891e-09 2.20025e-26))
1((0 0 0))
0()
1((-7.63103e-09 -2.04908e-08 0))
1((4.0583e-09 4.83746e-10 0))
1((6.40584e-09 1.16999e-08 -2.48458e-24))
1((1.37221e-09 2.10168e-09 0))
1((3.99361e-09 -1.33819e-09 0))
1((3.11236e-09 -1.64502e-09 0))
1((2.45537e-09 -4.46571e-09 0))
1((1.50198e-09 -5.37348e-10 -1.39059e-23))
1((1.33096e-09 -8.10758e-10 0))
0()
0()
0()
1((1.41477e-09 -1.10185e-09 0))
1((0 0 0))
1((1.09312e-08 -8.60651e-09 2.21006e-23))
0()
1((0 0 0))
0()
1((0 0 0))
1((0 0 0))
1((0 0 0))
1((0 0 0))
1((1.1155e-09 7.32932e-10 0))
1((6.63568e-09 2.02045e-09 0))
1((0 0 0))
0()
1((0 0 0))
1((0 0 0))
0()
1((0 0 0))
1((0 0 0))
0()
1((0 0 0))
1((0 0 0))
0()
0()
0()
0()
0()
0()
0()
1((6.3022e-09 3.67987e-25 7.41117e-10))
0()
1((1.78603e-08 -6.30304e-09 3.14389e-23))
1((2.86373e-09 2.14103e-09 0))
1((1.72632e-09 -4.50833e-09 3.88164e-24))
1((0 0 0))
1((0 0 0))
1((0 0 0))
1((6.68832e-09 5.28232e-09 0))