/*--------------------------------*- C++ -*----------------------------------*\
  =========                 |
  \\      /  F ield         | OpenFOAM: The Open Source CFD Toolbox
   \\    /   O peration     | Website:  https://openfoam.org
    \\  /    A nd           | Version:  8
     \\/     M anipulation  |
\*---------------------------------------------------------------------------*/
FoamFile
{
    version     2.0;
    format      ascii;
    class       labelFieldField;
    location    "0/lagrangian/kinematicCloud";
    object      collisionRecordsPairOrigIdOfOther;
}
// * * * * * * * * * * * * * * * * * * * * * * * * * * * * * * * * * * * * * //


3300
(
1(65)
1(66)
2(3 68)
4(2 70 69 4)
2(3 5)
2(4 71)
2(72 7)
3(73 8 6)
2(7 9)
3(10 8 75)
3(11 9 76)
3(12 10 13)
2(11 78)
2(11 14)
2(15 13)
4(14 80 79 16)
3(17 80 15)
3(18 16 82)
3(17 83 19)
2(84 18)
3(84 21 85)
2(20 22)
3(21 23 24)
3(87 22 88)
2(22 25)
2(24 89)
2(89 27)
1(26)
0()
2(93 30)
3(29 31 94)
2(30 32)
3(31 33 96)
2(98 32)
3(105 35 106)
3(108 107 34)
2(108 37)
2(36 39)
3(108 111 110)
3(111 37 40)
1(39)
3(42 111 112)
3(43 115 41)
2(42 44)
4(43 45 115 46)
4(117 44 118 46)
3(44 47 45)
3(118 46 48)
3(120 49 47)
2(48 50)
2(49 121)
1(123)
1(53)
4(123 54 52 125)
4(53 127 126 55)
2(54 56)
3(127 58 55)
2(130 127)
2(56 59)
3(58 60 131)
3(59 61 132)
2(60 62)
3(63 61 134)
2(64 62)
5(63 137 136 65 135)
2(0 64)
3(138 68 1)
1(138)
3(141 2 66)
3(3 143 141)
2(71 3)
5(72 70 145 144 5)
4(146 6 71 73)
4(7 147 74 72)
2(73 75)
4(74 9 149 76)
3(77 75 10)
2(76 151)
4(153 12 152 79)
3(15 78 154)
5(155 15 154 16 81)
4(80 157 155 82)
2(17 81)
2(158 18)
4(20 158 19 85)
3(86 20 84)
4(160 85 87 159)
3(23 86 162)
4(23 163 89 165)
3(88 26 25)
1(165)
2(166 92)
4(93 167 91 168)
3(29 92 94)
4(95 93 171 30)
3(94 96 173)
3(95 32 97)
1(96)
3(33 99 100)
2(175 98)
3(98 102 101)
1(100)
1(100)
0()
0()
4(34 177 106 178)
5(178 34 180 105 179)
3(35 180 109)
4(38 35 36 109)
3(107 110 108)
4(38 182 109 112)
3(38 41 39)
4(41 182 110 114)
2(185 182)
1(112)
4(42 186 44 116)
1(115)
2(45 189)
4(45 120 47 119)
3(118 190 191)
3(121 118 48)
4(120 122 192 50)
3(121 123 124)
4(53 122 51 124)
4(122 195 194 123)
3(126 195 53)
4(198 54 125 128)
4(57 54 56 128)
3(126 129 127)
2(128 200)
3(57 131 202)
3(132 130 59)
4(203 131 133 60)
3(132 134 204)
4(205 62 133 135)
2(134 64)
2(64 206)
2(138 64)
5(66 137 209 139 67)
3(140 209 138)
3(212 139 142)
3(142 68 69)
4(141 143 140 213)
4(214 69 142 144)
2(71 143)
3(71 215 217)
3(217 72 147)
3(73 148 146)
4(147 219 220 149)
3(148 150 75)
1(149)
2(221 77)
3(78 222 223)
2(78 224)
3(225 79 80)
4(80 226 81 156)
2(155 226)
1(81)
4(229 84 83 159)
2(158 86)
2(230 86)
3(231 162 233)
3(163 161 87)
5(162 88 234 164 165)
5(234 166 163 236 235)
4(163 88 90 166)
3(164 91 165)
3(92 238 237)
2(92 169)
4(238 168 240 170)
2(169 171)
2(170 94)
3(241 173 244)
2(95 172)
1(244)
3(244 99 245)
3(248 177 249)
4(249 105 176 178)
5(249 106 179 177 105)
5(178 252 106 251 180)
5(181 107 106 252 179)
3(180 182 252)
5(181 183 112 113 110)
3(184 253 182)
3(256 185 183)
5(113 186 184 187 257)
4(115 187 185 188)
5(186 258 259 185 188)
2(187 186)
3(260 117 190)
4(263 119 189 191)
2(190 119)
2(121 193)
4(263 194 265 192)
4(193 195 124 266)
4(196 125 194 124)
4(195 267 268 197)
3(198 196 269)
3(199 126 197)
2(198 200)
4(271 201 199 129)
3(200 202 272)
3(130 203 201)
4(132 273 204 202)
5(276 203 275 205 133)
4(134 276 206 204)
4(208 205 136 276)
4(276 208 278 279)
4(206 207 209 210)
3(139 208 138)
2(208 211)
1(210)
3(140 282 213)
5(212 214 284 142 283)
3(285 143 213)
2(145 285)
3(217 286 288)
4(146 216 218 145)
3(217 219 288)
4(289 148 220 218)
3(221 148 219)
4(220 222 151 291)
4(292 221 152 223)
3(152 294 222)
3(295 153 225)
3(296 154 224)
4(155 296 227 156)
4(228 297 226 299)
3(227 229 299)
3(228 158 230)
3(229 160 231)
4(300 161 232 230)
4(301 233 303 231)
4(232 234 304 161)
3(164 233 163)
4(236 304 305 164)
3(237 235 164)
3(167 236 307)
5(167 308 239 169 307)
4(308 240 238 310)
4(239 311 241 169)
2(172 240)
3(311 243 313)
3(242 245 244)
4(175 172 174 243)
3(243 316 175)
0()
2(248 320)
3(321 176 247)
5(322 178 177 176 250)
1(249)
3(179 324 252)
5(253 179 180 181 251)
3(183 252 254)
3(324 255 253)
3(254 256 328)
4(255 329 184 257)
2(256 185)
3(330 187 331)
2(260 187)
4(189 261 259 262)
5(260 334 333 331 262)
4(260 263 264 261)
3(190 193 262)
3(336 262 265)
4(264 193 337 266)
2(265 194)
4(337 196 339 268)
3(340 196 267)
3(197 341 270)
2(271 269)
4(343 200 270 272)
3(271 273 201)
4(272 203 275 274)
2(344 273)
3(347 204 273)
5(204 277 205 207 206)
3(276 348 278)
4(349 207 277 350)
3(207 280 350)
2(350 279)
2(351 282)
4(212 353 281 283)
2(282 213)
4(213 356 285 355)
5(214 286 356 215 284)
4(357 216 285 356)
4(288 358 357 359)
4(287 289 218 216)
4(288 219 360 290)
2(289 291)
2(290 221)
3(362 222 293)
4(294 363 292 365)
3(293 295 223)
4(366 224 296 294)
5(295 226 297 225 367)
5(368 227 296 298 367)
3(297 299 370)
5(228 298 300 371 227)
2(231 299)
3(371 232 302)
2(373 301)
3(374 232 304)
4(303 235 233 375)
3(375 306 235)
2(307 305)
4(306 238 237 378)
5(238 379 378 309 239)
4(379 310 308 381)
4(309 311 239 382)
3(242 240 310)
2(382 313)
4(242 314 312 385)
3(313 315 316)
1(314)
2(245 314)
0()
3(391 392 319)
1(318)
3(393 247 321)
4(394 322 248 320)
3(321 323 249)
4(322 325 324 395)
4(254 323 326 251)
3(397 326 323)
4(325 327 398 324)
3(326 328 399)
4(327 329 400 255)
4(328 330 256 401)
3(258 402 329)
3(258 332 261)
4(333 402 331 404)
4(405 332 261 334)
3(335 261 333)
4(336 334 406 405)
4(337 335 264 408)
3(336 267 265)
3(408 339 409)
3(411 267 338)
2(268 412)
3(412 269 342)
2(341 343)
4(271 415 342 344)
3(343 274 345)
4(417 415 346 344)
4(345 348 347 418)
2(275 346)
3(277 346 419)
3(420 278 350)
5(351 349 278 280 279)
3(281 421 350)
2(422 353)
4(282 354 352 424)
3(353 426 355)
2(354 284)
4(427 285 286 284)
4(428 286 427 287)
3(287 429 359)
2(358 287)
3(289 431 361)
2(360 362)
3(292 433 361)
3(433 293 364)
4(365 436 434 363)
3(293 366 364)
4(295 437 367 365)
4(297 366 438 296)
4(297 438 369 439)
3(368 441 370)
4(442 298 369 371)
4(301 299 370 372)
2(371 443)
4(443 374 445 302)
4(373 375 303 446)
4(374 305 446 304)
2(446 377)
2(376 378)
4(377 308 449 307)
4(449 380 308 309)
4(452 379 451 381)
3(309 380 382)
4(383 381 310 312)
4(384 382 455 453)
3(383 385 456)
2(384 313)
3(456 387 458)
2(386 459)
0()
1(460)
3(463 462 391)
3(464 390 318)
1(318)
3(465 320 394)
5(321 466 393 395 396)
2(394 323)
3(397 466 394)
3(469 325 396)
2(326 470)
2(327 471)
2(328 472)
3(473 329 402)
4(403 330 332 401)
4(475 402 473 404)
3(403 332 476)
3(477 333 335)
4(477 335 407 408)
4(480 406 409 408)
4(338 336 406 407)
3(410 407 338)
1(409)
2(339 483)
5(340 484 341 413 483)
3(414 412 485)
2(413 415)
4(343 416 345 414)
4(417 415 486 487)
5(345 489 416 488 418)
3(419 417 346)
3(418 348 420)
5(490 421 492 349 419)
3(420 351 422)
3(352 492 421)
2(493 424)
4(353 423 495 425)
1(424)
3(427 354 497)
4(498 356 426 357)
3(357 499 498)
4(358 500 430 499)
2(429 431)
4(502 432 360 430)
2(431 433)
4(432 363 504 362)
2(364 504)
3(436 505 507)
4(437 435 508 364)
3(436 438 366)
4(509 368 437 367)
3(509 368 440)
4(512 510 441 439)
4(442 440 369 513)
3(443 370 441)
5(442 444 373 514 372)
4(443 516 515 445)
4(444 446 373 517)
5(445 376 375 447 374)
4(448 517 446 519)
2(447 449)
4(448 379 378 450)
2(521 449)
2(522 380)
4(380 524 453 523)
3(452 383 454)
4(455 524 526 453)
4(454 383 456 527)
4(455 386 384 457)
3(529 527 456)
2(530 386)
1(387)
3(461 531 389)
4(533 532 460 605)
2(533 390)
3(535 390 534)
1(391)
2(393 536)
4(394 537 396 467)
4(468 537 539 466)
3(467 469 540)
3(397 470 468)
4(469 471 398 541)
4(470 472 543 399)
4(473 471 544 400)
4(403 472 401 474)
4(475 544 473 546)
4(403 547 474 476)
2(475 404)
4(548 405 406 478)
1(477)
3(549 480 551)
3(481 407 479)
3(480 482 552)
4(483 481 553 554)
4(484 411 482 412)
4(483 412 555 485)
3(486 484 413)
3(487 485 416)
4(486 558 488 416)
4(559 487 489 417)
5(417 561 490 488 560)
3(489 420 491)
4(563 561 492 490)
4(491 422 493 420)
4(492 494 423 563)
4(566 493 564 495)
3(494 496 424)
1(495)
2(426 568)
3(427 569 428)
4(570 428 429 569)
4(501 570 429 572)
3(500 502 572)
4(431 501 573 503)
2(504 502)
4(503 505 433 434)
3(435 575 504)
3(507 576 578)
3(506 508 435)
4(509 507 580 436)
4(438 508 439 510)
4(440 580 509 511)
3(583 510 512)
4(584 440 511 513)
3(441 512 514)
3(585 443 513)
4(585 444 516 587)
4(444 588 515 517)
4(447 516 445 518)
4(588 517 590 519)
4(520 518 447 591)
1(519)
2(591 450)
4(451 593 592 523)
3(522 452 594)
4(525 595 452 454)
3(524 597 526)
3(454 527 525)
3(455 457 526)
1(598)
2(457 601)
1(458)
3(602 460 532)
4(604 461 603 531)
4(606 462 461 534)
2(463 533)
3(463 536 607)
4(535 537 608 465)
4(538 536 466 467)
4(610 537 608 539)
4(467 540 538 611)
4(612 539 468 541)
3(540 470 542)
3(541 614 613)
3(471 615 544)
4(545 472 474 543)
5(544 617 616 615 546)
2(545 474)
4(619 475 618 548)
4(477 549 547 619)
3(548 550 479)
4(549 622 551 620)
4(550 623 552 479)
4(551 624 481 553)
3(552 482 554)
2(482 553)
3(484 626 556)
2(555 557)
4(558 627 556 629)
4(559 557 487 629)
5(558 560 488 631 630)
4(559 561 632 489)
4(562 489 560 491)
2(561 634)
3(491 564 493)
4(565 563 634 494)
4(635 566 564 637)
3(565 567 494)
3(566 568 639)
4(567 640 497 569)
4(498 640 499 568)
5(499 640 500 571 641)
5(641 572 643 570 642)
5(571 573 501 643 500)
3(572 574 502)
3(573 575 646)
3(574 505 576)
3(506 646 575)
2(647 578)
4(579 506 650 577)
3(578 580 650)
5(510 508 581 651 579)
3(580 652 582)
5(652 583 653 581 654)
4(582 584 511 655)
3(585 583 512)
5(584 586 515 656 514)
2(658 585)
3(659 515 588)
4(589 516 518 587)
4(588 661 660 590)
4(518 662 591 589)
3(590 521 519)
2(662 522)
4(663 594 522 665)
4(593 595 666 523)
3(594 524 596)
4(667 595 668 666)
4(525 669 668 598)
2(597 528)
2(600 669)
3(599 672 601)
2(529 600)
3(673 603 531)
3(532 674 602)
3(676 532 605)
3(604 461 677)
3(533 5 678)
2(535 679)
3(536 609 538)
3(608 681 680)
2(538 682)
3(539 683 682)
3(540 613 683)
4(612 685 614 542)
3(613 615 542)
5(543 686 616 545 614)
5(688 545 687 615 686)
4(618 545 689 688)
4(547 689 617 690)
4(547 620 690 548)
3(619 621 550)
4(620 693 622 691)
4(694 550 621 623)
4(551 624 622 695)
4(625 623 552 696)
3(626 624 697)
3(625 555 627)
4(626 697 557 628)
4(698 700 629 627)
4(628 630 557 558)
3(629 702 559)
3(559 703 632)
3(633 631 560)
3(634 632 704)
4(635 562 633 564)
4(705 565 634 636)
4(637 708 706 635)
3(636 638 565)
3(637 639 710)
4(640 638 711 567)
5(570 639 641 569 568)
5(711 571 642 640 570)
5(714 712 641 643 571)
4(644 642 571 572)
3(643 645 715)
3(644 646 717)
4(576 645 647 574)
3(646 648 577)
4(719 647 720 649)
2(648 650)
5(651 649 579 721 578)
4(580 650 652 722)
6(582 722 653 581 651 723)
5(723 725 652 654 582)
5(653 655 582 725 726)
3(656 654 583)
3(655 657 585)
4(727 729 656 658)
4(586 730 659 657)
3(660 587 658)
5(659 661 731 732 589)
4(660 733 589 662)
3(592 661 590)
3(733 593 664)
4(736 663 734 665)
3(593 737 664)
3(594 667 596)
4(666 739 738 596)
4(739 597 740 596)
4(597 740 670 599)
3(669 741 671)
2(670 672)
2(671 600)
3(674 0 602)
1(605)
2(606 679)
4(607 680 6 678)
4(8 679 609 7)
3(9 609 682)
4(610 10 681 611)
4(612 10 611 684)
2(683 11)
2(613 13)
4(615 13 687 616)
6(13 15 616 686 14 688)
6(16 616 689 15 617 687)
6(17 618 16 617 688 690)
5(619 17 691 689 618)
3(690 692 621)
5(18 693 691 20 19)
5(621 21 694 692 20)
4(622 695 693 22)
4(694 23 623 696)
4(697 695 624 24)
4(696 698 627 625)
4(24 628 697 699)
4(27 25 698 700)
3(699 701 628)
2(700 702)
4(703 701 30 630)
4(704 702 631 30)
4(703 744 705 633)
2(704 635)
2(744 636)
2(745 708)
3(707 709 636)
3(710 708 748)
3(709 711 638)
4(641 710 712 639)
4(750 711 642 713)
4(714 751 753 712)
4(713 642 754 715)
3(714 716 644)
1(715)
2(645 718)
2(717 757)
4(648 757 720 759)
4(719 721 760 648)
3(720 722 650)
4(721 652 723 651)
5(653 762 761 652 722)
3(762 725 764)
5(724 726 765 653 654)
3(727 725 654)
2(657 726)
2(729 766)
4(769 657 730 728)
3(658 731 729)
5(730 771 770 732 660)
4(731 733 660 772)
4(663 732 661 734)
3(733 735 664)
3(734 774 736)
3(664 776 735)
2(665 738)
5(776 737 778 739 667)
6(778 668 779 667 740 738)
4(739 669 779 668)
4(779 742 670 780)
2(741 743)
1(742)
2(756 754)
4(755 757 796 795)
4(756 719 758 718)
2(757 797)
3(719 799 798)
4(720 799 761 800)
2(760 723)
4(724 800 723 763)
4(801 764 803 762)
4(763 765 724 804)
3(766 725 764)
4(765 767 728 805)
3(766 807 768)
3(767 769 808)
3(770 729 768)
4(809 731 769 810)
3(731 811 810)
2(773 732)
3(772 774 812)
4(813 773 735 775)
2(774 776)
4(777 738 736 775)
4(776 817 778 815)
5(777 779 739 738 818)
5(780 778 741 739 740)
4(779 819 781 741)
2(780 782)
1(781)
3(756 797 795)
5(796 837 798 836 758)
4(797 799 838 759)
5(798 800 760 759 839)
4(799 762 801 760)
4(800 802 763 839)
3(801 842 840)
3(763 843 804)
3(805 803 764)
3(804 806 766)
2(805 845)
3(846 767 808)
2(807 768)
2(848 770)
4(770 850 849 771)
2(771 812)
4(813 811 851 773)
5(812 852 853 774 814)
3(813 815 854)
2(814 777)
3(854 817 856)
3(777 857 816)
2(819 778)
4(858 780 820 818)
2(819 860)
0()
2(834 795)
2(142 797)
3(797 144 143)
2(145 798)
3(799 840 801)
4(145 802 839 841)
4(802 149 843 841)
3(842 844 803)
3(807 152 847)
3(847 809 154)
3(810 155 156)
2(851 810)
4(850 852 157 812)
3(813 160 854)
4(816 853 814 855)
3(160 854 856)
3(855 163 816)
2(858 817)
4(164 857 819 859)
1(858)
1(820)
3(606 38 37)
3(679 38 7)
5(12 687 685 14 686)
4(5 39 6 7)
5(49 689 18 16 690)
4(698 23 25 696)
4(17 692 19 50)
4(40 38 680 6)
4(699 56 24 26)
6(688 49 48 689 15 17)
5(745 31 704 706 783)
4(744 707 746 783)
4(22 695 24 56)
4(693 22 20 54)
4(31 29 703 702)
4(11 682 42 683)
2(749 712)
4(21 23 55 694)
3(30 744 63)
3(28 30 62)
4(57 55 25 23)
3(789 713 752)
3(28 699 26)
3(755 714 753)
3(750 748 789)
4(747 788 709 749)
3(29 27 60)
4(144 146 838 840)
4(752 754 713 793)
2(849 227)
3(680 41 40)
3(681 42 41)
4(10 12 44 684)
5(47 13 45 687 15)
6(50 20 51 18 52 692)
6(53 21 19 693 52 692)
4(57 27 25 59)
3(38 72 71)
4(73 8 7 72)
4(8 74 42 9)
5(10 74 9 43 41)
3(42 44 75)
3(77 11 43)
3(12 46 14)
4(47 77 45 79)
5(46 80 48 14 15)
6(16 81 47 49 80 15)
5(50 17 81 16 48)
5(49 19 82 51 18)
5(84 82 52 19 50)
5(85 51 53 19 20)
3(20 54 52)
4(87 53 21 55)
4(88 22 56 54)
5(56 26 89 88 58)
4(89 91 57 59)
3(58 60 26)
5(28 92 61 59 93)
3(62 60 94)
3(61 63 29)
3(31 95 62)
4(98 100 35 171)
2(35 3)
3(37 71 69)
5(103 39 70 104 102)
4(39 105 73 40)
3(106 40 72)
4(41 75 106 42)
4(108 74 76 43)
3(75 77 109)
4(46 76 44 78)
2(109 77)
3(112 46 80)
4(47 113 48 79)
4(82 49 113 48)
5(81 51 114 50 83)
5(116 84 114 82 115)
4(51 83 117 85)
5(52 86 118 84 117)
3(87 85 118)
4(54 88 86 120)
4(89 87 55 57)
4(88 90 58 57)
4(121 89 123 91)
3(90 92 58)
4(124 60 91 93)
2(60 92)
1(61)
3(822 127 63)
3(97 168 167)
4(96 64 169 240)
5(99 66 67 34 170)
2(98 242)
3(67 172 243)
4(173 36 102 172)
4(101 71 173 69)
4(173 104 71 175)
4(176 103 105 71)
4(72 177 106 104)
5(74 177 105 73 107)
2(106 179)
3(75 180 179)
3(76 110 78)
5(111 109 181 180 182)
2(112 110)
5(111 113 183 79 184)
5(184 114 81 80 112)
4(113 83 82 115)
5(187 185 114 116 83)
4(117 188 83 115)
5(116 118 84 189 85)
5(117 190 85 119 86)
3(118 120 191)
3(121 87 119)
3(90 120 191)
4(192 123 193 194)
3(124 90 122)
4(125 123 195 92)
2(124 126)
4(125 127 198 197)
3(128 126 95)
3(127 823 129)
4(199 824 128 130)
2(129 202)
3(824 203 132)
4(204 825 133 131)
4(132 134 205 826)
3(133 829 135)
4(205 830 134 136)
1(135)
4(209 830 831 138)
4(139 831 137 833)
3(140 209 138)
4(139 141 211 834)
2(140 142)
3(836 213 141)
2(837 214)
4(216 837 145 215)
4(841 145 147 216)
3(219 146 217)
3(841 220 149)
3(150 842 148)
3(149 151 221)
5(150 223 845 152 222)
5(153 846 845 223 151)
5(152 154 225 847 224)
6(153 155 226 847 225 848)
4(227 154 849 226)
2(228 851)
3(852 229 230)
3(852 231 230)
4(853 161 231 855)
3(160 162 232)
3(161 163 234)
2(162 856)
3(235 858 165)
1(164)
0()
3(309 168 96)
4(310 96 167 240)
4(170 97 65 66)
3(241 169 98)
3(314 67 313)
3(100 173 101)
5(174 172 103 101 102)
3(173 246 244)
3(103 247 246)
3(104 248 247)
4(178 106 248 105)
3(177 250 179)
5(251 178 108 180 107)
4(181 108 110 179)
4(252 180 182 110)
4(181 254 183 110)
4(182 112 255 184)
5(113 185 255 112 183)
3(186 184 115)
4(258 185 256 187)
4(259 115 188 186)
4(189 187 116 260)
4(188 190 261 117)
3(189 191 118)
5(190 121 192 262 119)
4(122 262 191 193)
5(263 265 122 192 194)
3(195 193 122)
4(124 266 194 196)
2(195 267)
3(126 268 269)
3(126 270 199)
3(129 198 200)
2(199 271)
3(202 271 273)
3(201 203 130)
5(202 204 275 131 274)
4(132 205 276 203)
4(135 204 206 133)
2(205 207)
4(277 208 279 206)
3(209 207 280)
4(210 208 137 139)
3(209 211 281)
4(212 282 210 140)
2(213 211)
4(212 214 142 284)
4(215 213 285 143)
4(214 216 144 286)
5(217 144 215 146 287)
3(216 218 147)
4(290 217 289 288)
3(147 291 220)
3(221 148 219)
4(220 222 292 150)
3(221 294 151)
4(224 294 151 152)
5(223 225 295 296 153)
6(297 153 224 296 154 226)
5(154 297 155 225 298)
3(155 228 156)
4(227 157 299 229)
3(158 300 228)
4(301 159 158 302)
4(232 160 159 302)
4(303 231 233 161)
3(232 234 305)
3(233 235 162)
4(164 306 234 236)
3(235 308 307)
0()
1(522)
1(309)
3(168 311 97)
3(170 312 242)
5(312 384 99 241 313)
4(100 315 244 314)
3(243 174 245)
2(244 316)
3(174 318 175)
5(318 176 248 319 175)
5(176 319 177 249 247)
3(248 321 250)
3(322 178 249)
2(179 252)
4(181 323 253 251)
3(252 325 254)
4(255 182 325 253)
5(256 254 184 326 183)
3(255 257 186)
3(329 256 327)
2(186 330)
3(330 187 260)
4(259 332 188 261)
4(262 189 332 260)
4(192 261 263 191)
3(333 193 262)
3(265 334 336)
3(264 266 193)
4(195 337 265 267)
4(268 266 339 196)
4(267 340 197 339)
2(340 197)
3(271 198 341)
5(270 201 342 272 200)
2(271 344)
3(274 201 345)
3(273 346 203)
2(203 347)
2(277 204)
4(276 278 207 347)
4(350 277 348 279)
4(207 351 280 278)
3(281 279 208)
3(282 280 210)
4(353 211 283 281)
3(282 284 354)
4(283 285 355 213)
4(214 356 286 284)
3(285 287 215)
4(288 216 286 358)
3(287 359 218)
3(218 359 360)
4(218 291 362 361)
3(290 292 219)
4(293 291 363 221)
3(292 294 364)
5(293 295 223 222 365)
4(294 367 224 296)
4(224 368 295 225)
3(225 369 226)
1(226)
2(370 228)
3(371 229 301)
3(230 372 300)
3(373 231 230)
3(232 374 304)
2(303 375)
3(233 376 306)
4(377 235 307 305)
3(306 379 236)
1(236)
4(451 167 380 239)
2(168 382)
2(240 382)
3(242 383 241)
2(242 171)
4(385 243 171 386)
2(316 243)
5(387 315 317 388 245)
2(316 318)
5(319 246 389 247 317)
5(248 320 318 390 247)
3(319 392 391)
3(249 393 392)
3(250 323 393)
4(252 394 322 324)
3(323 325 396)
5(397 324 326 253 254)
4(255 327 325 397)
3(326 328 257)
2(400 327)
3(401 257 330)
5(401 259 331 258 329)
3(330 403 332)
4(333 331 261 260)
4(332 263 404 334)
4(264 404 335 333)
4(407 336 405 334)
3(335 337 264)
4(408 266 336 338)
2(337 409)
4(411 267 410 268)
4(341 411 268 269)
4(342 340 270 412)
4(341 343 271 413)
3(344 414 342)
4(343 416 345 272)
4(273 417 344 346)
4(418 345 347 274)
4(348 277 275 346)
4(347 349 278 418)
5(348 421 419 350 420)
4(278 422 349 351)
3(279 352 350)
2(353 351)
4(282 424 352 354)
2(353 283)
2(426 284)
3(427 285 357)
2(356 358)
3(357 287 359)
4(288 430 358 289)
4(430 431 361 289)
3(290 432 360)
3(290 363 433)
4(362 364 434 292)
5(293 363 436 435 365)
3(364 366 294)
3(367 365 438)
4(439 295 366 368)
4(369 296 440 367)
3(370 297 368)
4(369 371 299 441)
5(300 442 370 443 372)
4(371 373 443 301)
3(372 302 444)
4(375 303 444 445)
4(374 376 446 304)
4(375 377 447 305)
4(306 376 448 378)
2(377 449)
1(307)
4(309 452 451 381)
1(380)
4(310 383 453 311)
5(525 312 453 382 454)
3(456 242 455)
3(456 314 386)
3(314 387 385)
3(316 458 386)
2(316 459)
3(460 318 390)
4(319 461 391 389)
4(463 390 320 461)
3(464 320 321)
4(394 322 321 464)
5(323 393 395 465 464)
3(467 394 396)
4(395 468 324 397)
4(325 398 396 326)
2(399 397)
3(400 470 398)
4(401 399 328 472)
5(330 472 400 402 329)
3(401 403 474)
4(331 404 475 402)
4(403 334 405 333)
4(404 475 335 406)
3(407 478 405)
4(408 406 335 478)
4(337 479 407 409)
3(408 481 338)
3(481 339 482)
4(482 340 412 339)
4(413 411 341 483)
3(412 414 342)
4(485 343 415 413)
3(414 487 416)
4(344 488 415 417)
3(345 489 416)
3(346 419 348)
5(349 489 418 420 490)
4(419 492 490 349)
3(493 349 422)
3(350 423 421)
3(422 424 494)
4(425 423 495 353)
3(424 426 497)
3(425 355 427)
4(356 498 426 428)
3(427 429 499)
3(428 430 501)
4(429 359 360 501)
4(432 501 503 360)
5(431 361 504 433 503)
3(362 504 432)
2(363 505)
3(364 506 507)
3(437 507 364)
3(436 509 438)
4(437 439 366 510)
4(367 511 438 440)
3(441 368 439)
4(370 440 442 512)
5(513 371 514 443 441)
5(514 371 444 442 372)
3(443 374 373)
4(515 374 446 516)
4(517 447 375 445)
3(446 448 376)
4(449 377 519 447)
4(448 520 450 378)
1(449)
3(523 309 380)
3(380 595 524)
3(383 382 596)
4(455 383 525 526)
3(384 454 527)
5(384 457 527 385 528)
2(456 458)
5(459 529 457 387 530)
4(458 460 531 388)
4(459 461 389 531)
4(460 462 390 391)
4(461 534 532 463)
4(464 462 535 391)
4(392 463 394 393)
3(536 394 466)
3(465 467 538)
4(395 539 466 468)
3(469 396 467)
2(468 470)
4(541 399 469 471)
2(472 470)
5(473 401 543 400 471)
3(472 545 474)
4(546 402 473 475)
4(476 403 474 405)
3(477 475 546)
3(549 476 547)
3(406 549 407)
3(408 550 480)
2(479 551)
3(410 552 409)
4(553 411 410 483)
3(482 484 412)
2(483 555)
4(556 414 555 486)
2(485 557)
3(415 559 488)
3(560 416 487)
3(417 560 419)
4(491 560 420 419)
4(492 563 490 561)
4(493 491 420 564)
4(494 421 492 564)
4(493 495 565 423)
4(566 424 496 494)
3(495 568 497)
4(425 498 496 569)
3(497 427 499)
4(498 500 570 428)
3(501 499 572)
4(500 431 429 430)
3(572 503 574)
4(502 504 431 432)
5(503 505 432 433 575)
4(504 434 506 576)
4(435 505 577 578)
4(578 436 435 508)
1(507)
3(437 581 510)
3(438 582 509)
2(439 512)
4(511 513 583 441)
5(442 584 512 585 514)
6(443 586 442 515 585 513)
2(514 445)
4(586 517 445 587)
4(446 588 518 516)
2(517 519)
4(448 520 518 590)
4(591 449 521 519)
1(520)
2(238 593)
2(451 595)
1(452)
4(383 667 596 454)
4(527 597 598 454)
4(526 528 456 455)
3(529 527 456)
4(600 528 458 530)
2(529 458)
5(602 459 532 460 603)
3(462 531 533)
2(532 605)
4(605 462 535 606)
3(534 536 463)
5(465 607 537 535 606)
2(609 536)
2(466 609)
3(540 467 610)
2(539 541)
5(612 542 470 540 611)
2(541 543)
4(544 472 542 614)
2(543 616)
3(617 473 546)
4(547 545 474 476)
4(546 477 617 548)
1(547)
4(477 550 620 478)
3(551 549 479)
5(623 550 552 621 480)
4(551 553 624 481)
4(624 482 554 552)
2(553 555)
4(554 556 485 484)
4(485 627 557 555)
5(556 628 558 629 486)
3(559 557 630)
4(560 558 631 487)
5(559 489 490 488 561)
4(491 560 631 562)
2(561 632)
3(491 635 634)
3(492 565 493)
4(636 494 564 566)
4(637 495 567 565)
2(566 568)
4(496 640 569 567)
2(568 497)
3(571 641 499)
3(570 572 643)
4(571 502 500 573)
3(643 574 572)
4(502 575 573 645)
4(574 576 504 646)
4(647 577 505 575)
4(506 649 576 648)
4(507 649 506 579)
3(578 580 650)
3(579 581 652)
4(653 509 580 582)
3(510 581 583)
4(512 654 584 582)
5(655 513 585 583 656)
5(584 657 513 586 514)
4(514 587 585 516)
3(586 588 516)
5(659 517 587 589 660)
2(588 590)
3(589 591 519)
4(520 662 590 592)
1(591)
2(522 735)
2(595 664)
4(665 523 594 452)
4(666 525 738 453)
2(526 667)
3(526 669 599)
1(598)
4(529 671 601 670)
3(600 602 672)
4(673 531 601 603)
2(531 602)
3(605 674 676)
5(604 606 534 533 677)
4(605 607 534 536)
4(536 678 606 608)
2(680 607)
4(537 681 610 538)
3(611 609 539)
3(610 541 682)
4(683 541 613 682)
3(612 614 684)
3(543 685 613)
2(685 616)
4(544 688 617 615)
4(618 545 616 547)
2(617 619)
3(618 691 689)
3(549 691 621)
2(551 620)
3(623 692 694)
3(695 551 622)
4(553 695 552 625)
3(624 626 696)
2(625 627)
3(556 698 626)
2(699 557)
3(701 557 630)
2(629 558)
3(632 559 561)
5(631 633 702 703 562)
4(705 632 634 704)
2(633 563)
2(563 636)
5(637 706 565 635 707)
4(566 636 708 638)
3(637 710 639)
2(638 640)
3(568 641 639)
5(712 570 640 642 711)
3(641 643 714)
4(573 644 642 571)
3(715 643 645)
4(646 574 716 644)
2(645 575)
4(648 717 576 718)
4(647 649 719 577)
5(648 720 578 577 650)
3(651 649 579)
2(723 650)
2(580 723)
3(581 724 654)
4(583 724 655 653)
5(726 584 725 654 656)
3(584 727 655)
2(658 585)
3(657 728 659)
4(588 730 658 660)
3(661 659 588)
2(660 662)
5(591 733 661 732 663)
1(662)
3(594 71 735)
4(595 736 666 737)
3(665 596 737)
4(739 738 525 597)
1(739)
3(670 740 598)
3(600 741 669)
3(600 742 672)
5(673 671 743 601 744)
3(672 674 602)
3(673 675 604)
3(674 746 747)
3(604 748 677)
2(676 605)
4(607 749 748 679)
2(678 751)
3(608 752 681)
3(609 682 680)
5(683 681 753 612 611)
4(612 754 684 682)
4(683 685 755 613)
4(684 686 614 615)
4(687 685 757 756)
3(686 688 759)
3(687 616 689)
4(688 690 619 759)
3(762 689 760)
4(692 619 762 620)
3(693 691 622)
3(692 765 694)
2(693 622)
4(623 766 696 624)
4(695 697 767 625)
2(696 698)
4(627 699 697 769)
4(700 770 628 698)
3(699 772 701)
4(700 702 629 773)
2(632 701)
2(773 632)
2(775 633)
3(776 706 633)
2(705 636)
2(777 636)
4(779 637 709 778)
3(708 781 710)
3(711 638 709)
3(710 641 782)
3(783 641 713)
2(712 714)
2(713 642)
3(716 785 644)
4(717 715 787 645)
3(716 647 788)
2(789 647)
3(790 648 720)
4(791 649 721 719)
2(720 722)
3(721 794 723)
5(651 722 724 652 795)
4(725 723 654 653)
3(796 655 724)
4(655 797 798 727)
2(726 656)
3(799 658 729)
2(728 800)
4(801 659 731 802)
2(730 732)
3(731 662 733)
4(662 804 734 732)
2(805 733)
4(737 667 3 596)
4(5 667 4 668)
2(669 5)
3(742 6 670)
3(745 672 9)
5(748 746 12 675 13)
4(747 678 676 749)
5(678 13 14 750 748)
2(679 17)
3(680 753 17)
4(754 17 682 752)
5(19 683 753 18 755)
4(754 756 684 21)
3(757 755 686)
4(22 686 756 758)
2(757 759)
4(760 689 687 758)
4(690 24 759 761)
3(760 762 25)
5(690 763 691 27 761)
2(764 762)
4(693 764 766 30)
3(695 31 765)
3(696 32 768)
2(767 32)
3(698 34 770)
4(700 38 771 773)
4(701 703 774 772)
2(38 773)
4(705 41 775 777)
2(776 707)
2(42 708)
2(781 711)
3(784 715 786)
4(716 786 53 788)
2(787 717)
2(718 54)
4(57 790 720 792)
3(722 60 795)
2(723 794)
2(61 725)
2(726 62)
3(726 799 64)
3(800 798 728)
4(800 730 67 802)
3(801 803 730)
1(802)
2(69 733)
3(822 744 745)
3(95 784 783)
3(822 746 823)
4(785 128 784 824)
4(823 786 825 746)
4(129 825 823 131)
5(786 745 784 747 785)
3(787 746 785)
4(785 826 132 824)
3(825 827 133)
3(786 788 827)
4(65 98 34 169)
3(2 98 66)
3(828 826 787)
4(787 789 748 828)
2(65 97)
4(673 32 1 33)
5(66 32 64 169 33)
3(2 67 68)
4(790 827 829 788)
3(36 2 68)
2(65 0)
4(34 675 3 35)
4(828 830 134 791)
4(752 828 789 791)
2(65 0)
3(674 676 2)
4(101 676 3 69)
3(675 673 603)
4(831 135 829 137)
4(2 738 665 666)
3(792 829 790)
1(0)
4(790 753 792 751)
4(675 36 604 4)
2(665 1)
2(3 739)
4(36 70 4 102)
4(832 830 137 138)
3(752 832 791)
3(73 738 4)
3(739 76 740)
4(16 753 752 751)
2(760 23)
4(831 794 792 833)
2(794 753)
3(834 832 138)
3(832 795 793)
3(37 676 69)
3(32 766 102)
6(687 16 688 47 48 14)
3(833 835 140)
3(5 4 70)
4(788 751 790 749)
2(748 746)
4(146 148 842 840)
4(158 813 851 159)
3(13 11 45)
4(844 152 151 806)
4(848 153 846 154)
2(843 845)
2(791 793)
4(794 796 756 835)
2(70 734)
3(71 142 735)
4(71 2 143 736)
4(737 1 72 73)
2(76 741)
3(77 742 78)
4(742 79 78 743)
2(79 744)
2(80 745)
4(746 81 12 82)
4(13 747 11 83)
3(749 12 747)
4(15 84 749 85)
3(87 14 85)
3(88 750 17)
2(754 88)
4(90 754 89 20)
3(19 92 21)
2(755 20)
3(92 757 23)
3(22 95 24)
2(95 761)
2(96 27)
4(762 28 98 26)
2(27 29)
4(101 28 100 764)
4(764 102 101 765)
4(31 33 767 768)
3(32 34 104)
4(33 35 769 105)
4(105 36 770 34)
3(35 108 37)
4(109 771 36 38)
4(39 772 37 774)
4(38 40 775 110)
3(39 112 110)
3(112 776 42)
2(41 778)
3(779 113 114)
2(779 114)
3(115 46 117)
4(780 118 45 47)
4(46 783 781 48)
2(47 119)
3(119 50 121)
3(784 51 49)
4(50 52 121 786)
4(124 51 53 122)
3(52 787 54)
3(53 789 125)
3(125 790 56)
3(57 55 126)
4(791 58 128 56)
3(57 59 793)
3(58 60 130)
4(794 131 61 59)
3(132 796 60)
4(797 132 133 63)
2(62 134)
3(798 135 65)
4(136 800 64 66)
1(65)
3(138 801 68)
3(67 140 69)
3(68 804 70)
3(141 805 69)
4(0 1 664 142)
4(215 2 143 73)
5(144 3 72 2 74)
2(73 75)
1(74)
3(6 146 5)
3(147 7 148)
4(149 148 8 7)
4(8 150 9 80)
3(79 10 150)
3(151 11 82)
5(83 153 81 152 11)
4(84 82 12 154)
4(83 14 155 85)
5(86 155 14 15 84)
2(85 158)
3(15 159 88)
4(16 89 87 18)
4(88 90 159 19)
5(19 161 160 91 89)
3(92 90 163)
4(91 22 20 93)
3(94 92 163)
2(93 166)
3(23 96 25)
4(166 97 95 26)
5(96 169 98 167 168)
4(27 169 99 97)
3(100 98 170)
5(172 99 101 171 29)
5(29 172 30 100 173)
4(103 30 31 173)
2(102 104)
4(103 175 105 33)
4(104 35 106 34)
4(105 107 177 176)
3(179 106 108)
3(36 180 107)
2(37 110)
5(180 39 111 109 40)
4(112 181 110 182)
5(183 113 41 111 40)
2(43 112)
4(184 115 43 44)
3(45 114 185)
3(186 117 188)
4(45 116 118 189)
3(119 46 117)
4(120 118 49 48)
4(119 192 190 121)
4(122 51 49 120)
4(123 192 121 52)
4(122 195 124 193)
4(125 123 52 196)
3(55 124 54)
3(196 56 127)
3(197 128 126)
4(57 127 129 199)
2(128 200)
4(200 131 59 201)
5(130 132 202 60 203)
5(62 61 131 133 203)
5(203 204 62 134 132)
4(135 133 204 63)
4(206 64 134 136)
5(65 207 206 135 137)
1(136)
3(67 209 139)
2(138 211)
2(68 141)
3(140 212 70)
4(143 355 71 0)
4(142 214 1 72)
3(145 73 215)
2(144 146)
4(147 217 76 145)
3(77 146 219)
4(78 219 220 77)
4(78 220 150 221)
5(151 149 79 221 80)
4(152 150 81 222)
4(151 153 223 82)
5(152 154 224 82 225)
4(153 155 226 83)
4(154 85 84 156)
2(155 157)
5(156 229 227 228 158)
4(86 159 229 157)
5(160 87 158 230 89)
4(159 90 231 230)
3(232 90 162)
3(163 233 161)
4(91 164 162 93)
3(165 163 234)
4(164 237 166 236)
4(96 165 167 94)
4(237 97 168 166)
5(240 169 238 167 97)
5(98 170 97 240 168)
4(171 169 99 241)
5(170 243 241 242 100)
4(100 244 101 243)
4(174 244 102 101)
3(175 173 245)
4(246 104 174 176)
3(175 247 106)
3(106 178 247)
5(177 249 250 248 179)
4(251 107 250 178)
3(108 181 110)
5(182 180 111 252 251)
4(254 181 183 111)
4(112 184 254 182)
2(183 114)
3(255 115 186)
3(185 187 116)
4(259 186 257 188)
3(116 187 189)
3(190 117 188)
3(120 189 260)
3(261 192 263)
5(120 122 191 193 263)
5(194 192 263 123 264)
3(266 193 195)
4(123 267 196 194)
4(195 126 124 197)
4(267 127 196 198)
3(197 199 268)
3(128 270 198)
3(270 130 129)
4(271 202 130 272)
5(131 201 273 203 274)
5(202 133 274 131 132)
5(133 274 205 134 275)
3(204 206 275)
5(277 135 205 136 207)
5(278 136 277 208 206)
5(207 209 278 279 280)
4(280 138 208 210)
2(209 282)
2(139 282)
2(283 141)