/*--------------------------------*- C++ -*----------------------------------*\
  =========                 |
  \\      /  F ield         | OpenFOAM: The Open Source CFD Toolbox
   \\    /   O peration     | Website:  https://openfoam.org
    \\  /    A nd           | Version:  8
     \\/     M anipulation  |
\*---------------------------------------------------------------------------*/
FoamFile
{
    version     2.0;
    format      ascii;
    class       vectorFieldField;
    location    "0/lagrangian/kinematicCloud";
    object      collisionRecordsWallPRel;
}
// * * * * * * * * * * * * * * * * * * * * * * * * * * * * * * * * * * * * * //


3300
(
0()
1((-0.00299967 0 8.67362e-19))
2((-0.00299921 0 0) (0 0 0.00299987))
1((0 0 -0.00299995))
1((-0.00299993 0 4.33681e-19))
0()
2((-0.00299875 0 -4.33681e-19) (0 0 0.00299989))
2((-0.00299941 0 0) (8.67362e-19 0 0.00299995))
0()
0()
2((-0.00299983 0 4.33681e-19) (0 0 -0.00299993))
2((-0.00299889 0 0) (0 0 0.00299988))
1((-1.73472e-18 0 -0.00299985))
1((2.60209e-18 0 -0.00299995))
1((-0.00299908 0 0))
1((0 0 0.00299992))
1((8.67362e-19 0 0.00299992))
2((-0.00299938 0 0) (-4.33681e-19 0 -0.00299995))
2((-0.00299972 0 0) (0 0 0.00299994))
1((-0.00299985 0 -4.33681e-19))
1((-0.00299949 0 0))
2((-0.00299986 0 0) (1.73472e-18 0 -0.00299995))
2((-0.00299977 0 0) (0 0 0.00299995))
0()
1((-0.00299999 0 0))
0()
0()
0()
0()
1((-0.00299886 0 0))
0()
0()
0()
1((-0.00299977 0 0))
2((-1.73472e-18 0 0.00299977) (-0.00149986 -0.00259784 0))
2((-0.00149893 -0.00259622 -4.33681e-19) (1.73472e-18 0 -0.00299977))
2((-0.00149967 -0.00259751 4.33681e-19) (-4.33681e-19 0 -0.00299994))
1((1.30104e-18 0 0.00299991))
0()
2((-0.00299931 0 4.33681e-19) (8.67362e-19 0 -0.00299992))
0()
1((0 0 -0.00299967))
1((0 0 0.00299973))
1((-0.00299751 0 0))
1((8.67362e-19 0 -0.00299977))
1((0 0 -0.00299985))
1((-0.00299857 0 0))
2((-0.00299908 0 0) (1.30104e-18 0 0.00299985))
2((-0.00299971 0 0) (-8.67362e-19 0 0.00299994))
1((4.33681e-19 0 -0.00299999))
0()
1((-0.00299862 0 0))
1((-0.00299916 0 -4.33681e-19))
1((0 0 -0.00299984))
1((-1.73472e-18 0 0.00299976))
2((-0.00299936 0 4.33681e-19) (1.30104e-18 0 -0.00299983))
2((-0.00299925 0 0) (0 0 -0.00299991))
0()
1((0 0 0.00299992))
2((-0.0029995 0 0) (-4.33681e-19 -2.77556e-17 -0.00299992))
1((0 0 0.00299993))
0()
2((-0.00299862 0 -4.33681e-19) (-4.33681e-19 0 -0.00299986))
2((-0.00299969 0 0) (0 0 0.00299988))
0()
1((-0.00299986 0 8.67362e-19))
0()
0()
1((0 0 -0.00299987))
1((0 0 -0.00299984))
0()
1((0 0 0.00299989))
1((0 0 -0.00299983))
1((-1.73472e-18 0 -0.00299995))
0()
0()
0()
0()
1((0 0 0.00299985))
1((0 0 0.00299989))
1((0 0 -0.00299983))
0()
0()
0()
1((1.73472e-18 0 0.00299997))
0()
1((0 0 0.00299992))
1((0 0 -0.00299992))
0()
0()
0()
0()
0()
1((0 0 -0.00299991))
1((0 0 0.0029999))
1((0 0 -0.00299992))
0()
0()
0()
0()
1((-0.00299994 0 4.33681e-19))
0()
0()
0()
0()
2((-0.00149933 -0.00259691 -4.33681e-19) (0 0 -0.00299991))
1((-3.46945e-18 0 -0.00299986))
1((0 0 0.00299987))
1((-1.73472e-18 0 -0.00299995))
1((0 0 0.00299995))
1((0 0 0.00299994))
1((1.73472e-18 0 0.00299974))
1((0 0 0.0029999))
0()
0()
1((1.73472e-18 0 0.00299963))
0()
0()
1((0 0 0.00299985))
1((0 0 -0.00299993))
1((1.73472e-18 0 -0.00299989))
1((0 0 -0.00299983))
1((1.73472e-18 0 0.00299976))
1((0 0 -0.00299986))
1((0 0 -0.00299976))
1((0 0 0.0029999))
1((0 0 -0.00299984))
1((-1.73472e-18 0 -0.00299993))
1((0 0 0.00299992))
0()
1((0 0 0.00299993))
1((0 0 0.00299994))
1((1.73472e-18 0 0.00299994))
0()
0()
0()
0()
1((0 0 -0.00299996))
1((0 0 0.00299993))
1((0 0 0.00299991))
1((3.46945e-18 0 -0.00299987))
1((0 0 0.00299984))
0()
1((0 0 0.00299995))
0()
1((0 0 -0.00299992))
1((0 0 -0.00299991))
1((0 0 0.00299991))
1((0 0 -0.00299997))
0()
0()
0()
1((0 0 0.00299987))
1((0 0 -0.00299993))
1((0 0 -0.0029999))
1((0 0 0.00299983))
0()
0()
0()
0()
0()
0()
0()
0()
1((0 0 0.00299989))
0()
0()
1((0 0 0.00299988))
0()
0()
0()
0()
0()
0()
0()
1((0 0 0.00299999))
2((-0.00149903 -0.0025964 0) (0 0 0.00299989))
2((-0.00149919 -0.00259667 4.33681e-19) (0 0 0.00299983))
1((0 0 0.00299994))
1((0 0 -0.00299976))
1((0 0 0.00299982))
1((0 0 -0.00299998))
1((0 -1.38778e-17 -0.00299984))
0()
1((-3.46945e-18 0 -0.00299971))
1((0 0 0.00299974))
1((-3.46945e-18 0 -0.00299955))
1((0 0 0.00299961))
0()
1((0 0 0.00299989))
1((0 0 0.0029999))
0()
0()
1((0 0 0.00299982))
1((0 0 -0.00299986))
1((0 0 0.00299967))
1((0 0 -0.0029997))
1((0 0 -0.00299987))
1((0 0 0.00299988))
0()
1((0 0 -0.00299986))
1((0 0 0.00299989))
1((0 0 -0.00299984))
1((0 0 0.00299983))
1((0 0 -0.00299985))
1((0 0 0.00299982))
1((0 0 -0.00299989))
1((3.46945e-18 0 0.0029998))
1((0 0 -0.00299985))
0()
0()
0()
1((0 0 0.00299997))
1((3.46945e-18 0 0.00299987))
1((0 0 -0.00299993))
0()
1((0 0 -0.00299993))
1((0 0 0.00299985))
0()
1((0 0 -0.00299987))
1((0 0 0.00299992))
0()
1((0 0 -0.00299987))
1((0 0 0.00299993))
0()
1((0 0 0.0029999))
1((0 0 -0.0029999))
1((0 0 -0.00299988))
1((0 0 0.00299984))
1((0 0 -0.00299988))
1((0 0 0.00299994))
1((0 0 -0.00299999))
1((0 0 -0.00299992))
1((0 0 0.003))
0()
0()
0()
1((0 0 -0.00299989))
1((0 0 -0.00299986))
0()
1((0 0 -0.00299985))
0()
0()
0()
0()
0()
0()
2((-0.00149906 -0.00259645 0) (0 0 -0.00299982))
1((0 0 -0.00299976))
1((0 0 0.00299973))
0()
1((0 0 0.00299978))
1((-3.46945e-18 0 -0.0029998))
1((0 0 0.00299976))
1((0 0 0.00299986))
1((0 0 -0.0029998))
1((0 0 0.00299974))
0()
1((0 0 -0.00299959))
0()
1((0 0 -0.00299981))
1((0 0 -0.00299972))
1((0 0 0.00299976))
1((0 0 -0.0029998))
1((0 0 -0.00299994))
0()
0()
1((0 0 0.00299986))
0()
1((0 0 0.00299983))
1((0 0 -0.00299988))
1((0 0 0.00299986))
0()
1((0 0 -0.00299995))
0()
1((0 0 0.00299997))
0()
1((0 0 0.00299989))
1((3.46945e-18 0 -0.00299983))
0()
0()
1((0 0 -0.00299991))
0()
0()
1((0 0 -0.0029999))
1((0 0 -0.00299993))
0()
1((0 0 -0.00299991))
0()
1((0 0 0.00299984))
0()
0()
1((0 0 -0.00299993))
1((0 0 0.00299992))
1((0 0 -0.00299988))
1((0 0 -0.00299989))
1((0 0 -0.0029999))
1((0 0 0.00299992))
0()
1((0 0 -0.00299992))
1((0 0 0.00299998))
0()
0()
0()
0()
0()
0()
0()
1((0 0 0.00299993))
1((0 0 0.00299992))
0()
0()
0()
0()
0()
0()
0()
0()
1((-0.00149993 -0.00259795 -4.33681e-19))
0()
1((0 0 0.00299981))
1((0 0 0.00299955))
1((0 0 -0.00299952))
1((0 0 0.00299964))
1((0 0 -0.00299972))
1((0 0 0.00299991))
1((0 0 -0.0029997))
1((0 0 0.00299979))
1((0 0 0.00299978))
1((0 0 -0.00299964))
1((0 0 0.0029997))
1((0 0 0.00299978))
1((0 0 -0.00299983))
1((0 0 0.00299971))
1((0 0 -0.00299996))
1((0 0 0.00299974))
1((0 0 -0.00299972))
1((0 0 0.00299978))
1((0 0 0.00299985))
1((0 0 -0.00299982))
1((0 0 0.00299989))
0()
0()
1((0 0 0.0029999))
0()
1((-6.93889e-18 0 0.00299986))
0()
1((0 0 -0.00299999))
1((0 0 -0.00299987))
0()
1((0 0 0.00299996))
1((0 0 0.0029999))
1((0 0 0.00299999))
1((0 0 0.00299989))
1((0 0 -0.00299996))
0()
1((0 0 0.0029999))
1((0 0 0.00299981))
1((0 0 0.00299993))
0()
1((0 0 -0.00299986))
1((0 0 0.00299995))
1((0 0 -0.00299994))
1((0 0 -0.00299993))
1((0 0 -0.00299994))
0()
1((0 0 0.00299988))
1((0 0 0.00299988))
1((0 0 0.00299982))
1((0 0 -0.00299989))
1((0 0 -0.00299993))
1((0 0 0.00299991))
1((-6.93889e-18 0 -0.003))
1((0 0 -0.00299992))
1((0 0 0.00299992))
1((0 0 -0.00299995))
0()
0()
0()
1((0 0 -0.00299988))
1((0 0 0.00299977))
1((0 0 -0.00299989))
0()
0()
0()
0()
0()
0()
0()
1((-0.00149996 -0.00259801 -4.33681e-19))
2((-0.00149734 -0.00259347 8.67362e-19) (0 0 -0.00299968))
1((-0.00149994 -0.00259798 -4.33681e-19))
0()
1((0 0 -0.00299987))
1((0 0 -0.0029996))
0()
1((0 0 -0.00299983))
1((0 0 0.00299985))
0()
0()
0()
1((0 0 0.00299986))
1((0 0 0.00299971))
1((0 0 -0.00299958))
1((0 0 0.00299996))
1((0 0 -0.00299972))
1((0 0 0.00299985))
1((0 0 -0.00299987))
1((0 0 -0.00299987))
0()
0()
0()
0()
1((0 0 -0.00299985))
1((0 0 0.00299985))
1((0 0 -0.00299977))
1((0 0 -0.00299991))
1((0 0 0.00299991))
1((0 0 -0.00299996))
0()
1((0 0 0.00299977))
1((0 0 -0.00299989))
0()
1((0 0 0.00299999))
0()
0()
0()
1((0 0 -0.0029999))
1((0 0 -0.00299983))
1((0 0 -0.00299979))
1((0 0 0.00299983))
0()
0()
1((0 0 0.0029999))
1((0 0 0.00299996))
1((0 0 0.00299982))
1((0 0 -0.00299985))
1((0 0 -0.00299995))
1((0 0 -0.00299986))
1((0 0 -0.00299988))
1((0 0 0.00299985))
1((0 0 -0.00299989))
1((0 0 0.00299987))
1((0 0 0.00299992))
1((0 0 -0.00299993))
1((0 0 0.00299992))
1((0 0 -0.00299992))
0()
1((0 0 0.00299985))
0()
0()
0()
0()
0()
1((0 0 0.00299995))
0()
0()
0()
0()
0()
2((-0.00149919 -0.00259668 4.33681e-19) (0 0 0.0029999))
1((0 0 -0.00299978))
0()
1((-6.93889e-18 -6.93889e-18 0.00299974))
0()
0()
1((0 0 0.0029996))
1((0 0 0.00299975))
1((0 0 -0.00299976))
0()
1((0 0 0.00299966))
1((0 0 -0.00299968))
1((0 0 -0.00299976))
1((0 0 0.0029998))
1((0 0 -0.00299995))
1((0 0 0.00299964))
0()
1((0 0 -0.00299985))
0()
1((0 0 -0.00299993))
1((0 0 0.00299982))
1((0 0 -0.00299982))
0()
1((0 0 0.00299983))
1((0 0 -0.00299974))
1((0 0 0.00299979))
1((0 0 -0.00299979))
1((0 0 0.00299984))
1((0 0 0.00299975))
1((0 0 -0.00299979))
1((0 0 -0.00299992))
1((0 0 0.00299989))
1((0 0 -0.00299988))
1((0 0 -0.00299984))
1((0 0 0.0029998))
0()
0()
0()
1((0 0 -0.00299995))
1((-6.93889e-18 0 0.00299983))
1((0 0 -0.0029999))
1((0 0 0.00299991))
1((0 0 0.00299999))
0()
1((0 0 -0.00299989))
1((0 0 -0.00299992))
1((0 0 -0.0029998))
1((0 0 0.00299985))
1((0 0 0.00299987))
1((0 0 -0.0029999))
1((0 0 0.00299981))
1((0 0 -0.00299989))
1((0 0 -0.00299985))
0()
0()
1((6.93889e-18 0 -0.0029998))
1((0 0 0.00299981))
1((0 0 -0.00299986))
0()
0()
0()
0()
0()
0()
1((0 0 -0.00299986))
0()
0()
0()
0()
0()
0()
1((-0.00149973 -0.0025976 0))
1((0 0 -0.00299977))
1((0 0 0.00299952))
0()
1((0 0 0.00299953))
0()
1((0 0 -0.00299951))
1((0 0 0.00299982))
1((0 0 -0.00299992))
1((0 0 -0.00299991))
1((0 0 0.00299996))
1((0 0 -0.00299997))
1((0 0 -0.00299984))
1((0 0 0.00299972))
1((0 0 -0.00299979))
0()
1((0 0 -0.00299957))
1((0 0 0.00299975))
0()
1((0 0 -0.00299987))
1((0 0 -0.00299987))
1((0 0 0.00299983))
0()
0()
1((0 0 0.00299983))
1((0 0 -0.00299996))
1((0 0 -0.0029999))
1((6.93889e-18 0 0.00299978))
1((0 0 -0.00299965))
1((0 0 0.00299988))
1((0 0 -0.00299989))
1((0 0 0.00299993))
0()
0()
1((0 0 0.00299979))
0()
1((0 0 -0.00299979))
1((6.93889e-18 0 0.00299985))
1((0 0 0.00299998))
1((0 0 0.00299977))
1((0 0 -0.00299976))
1((0 0 -0.00299984))
1((0 0 0.00299981))
1((6.93889e-18 0 0.00299988))
1((0 0 -0.00299986))
1((0 0 0.00299982))
0()
0()
0()
1((0 0 -0.00299982))
0()
1((0 0 0.00299977))
1((0 0 -0.00299979))
1((0 0 0.00299978))
1((0 0 0.00299987))
1((0 0 -0.00299988))
1((0 0 0.0029999))
1((0 0 -0.00299994))
0()
1((0 0 0.00299991))
0()
0()
1((0 0 0.00299996))
0()
0()
0()
0()
0()
0()
1((0 0 0.00299999))
0()
1((-0.00149978 -0.00259769 -4.33681e-19))
1((0 0 0.00299979))
1((0 0 0.00299995))
1((0 0 0.00299996))
1((0 0 -0.0029995))
1((0 0 -0.00299956))
1((0 0 0.00299985))
1((0 0 0.00299987))
1((0 0 0.00299975))
1((0 0 -0.00299997))
1((0 0 0.00299991))
1((0 0 0.00299995))
0()
1((0 0 0.00299973))
1((0 0 -0.00299967))
0()
1((0 0 0.00299988))
1((0 0 0.00299973))
0()
1((1.38778e-17 0 0.00299985))
1((0 0 -0.00299977))
1((0 0 0.00299982))
1((0 0 -0.00299982))
0()
1((0 0 0.00299994))
1((0 0 -0.0029997))
0()
0()
1((0 0 0.00299991))
1((0 0 0.00299984))
0()
0()
1((0 0 0.00299996))
1((0 0 -0.00299973))
1((0 0 -0.00299984))
1((0 0 -0.00299993))
0()
1((0 0 0.00299975))
1((0 0 -0.00299971))
1((0 0 0.00299971))
1((0 0 0.0029998))
1((0 0 -0.00299977))
1((0 0 0.00299981))
0()
1((0 0 -0.00299983))
1((0 0 0.0029999))
1((0 0 -0.00299991))
1((0 0 0.00299993))
1((0 0 0.00299994))
0()
1((0 0 -0.00299984))
1((0 0 -0.00299998))
1((0 0 -0.0029999))
1((0 0 0.00299991))
0()
1((0 0 -0.00299988))
1((0 0 0.00299982))
1((0 0 -0.00299993))
0()
1((0 0 0.00299996))
0()
1((0 0 -0.00299996))
1((0 0 0.00299997))
0()
0()
0()
0()
0()
0()
0()
0()
2((-0.00149949 -0.00259719 -4.33681e-19) (0 0 -0.00299985))
0()
1((0 0 -0.00299985))
1((0 0 0.00299948))
1((0 0 -0.00299953))
1((0 0 -0.00299983))
1((0 0 -0.00299959))
1((0 0 -0.00299995))
0()
1((0 0 -0.00299991))
1((0 0 0.00299986))
0()
0()
1((0 0 0.00299974))
0()
0()
1((0 0 0.0029998))
1((0 0 -0.00299968))
1((0 0 0.00299972))
1((0 0 0.00299976))
1((0 0 -0.00299966))
1((0 0 0.00299963))
1((0 0 -0.0029999))
1((0 0 -0.00299988))
1((0 0 0.00299986))
1((0 0 -0.00299986))
0()
0()
1((0 0 0.00299984))
1((0 0 0.00299983))
1((0 0 0.00299976))
1((0 0 0.00299985))
1((0 0 -0.00299982))
1((0 0 0.00299983))
1((0 0 0.00299988))
1((0 0 -0.0029997))
1((0 0 0.00299978))
1((0 0 -0.00299975))
1((0 0 -0.00299988))
1((0 0 0.00299997))
0()
1((0 0 -0.00299997))
0()
1((0 0 -0.00299976))
1((0 0 0.00299986))
0()
1((0 0 0.00299988))
1((0 0 -0.0029999))
1((0 0 0.00299995))
1((0 0 -0.00299997))
1((0 0 0.00299992))
0()
1((0 0 -0.00299993))
0()
1((0 0 -0.00299987))
1((0 0 -0.00299991))
1((0 0 0.00299989))
1((0 0 -0.00299992))
0()
0()
0()
0()
1((0 0 0.00299999))
0()
0()
0()
0()
0()
0()
1((0 0 -0.0029997))
1((0 0 0.00299977))
0()
1((0 0 0.00299992))
1((0 0 0.0029999))
0()
0()
1((0 0 0.00299988))
0()
1((0 0 -0.00299991))
1((0 0 0.00299986))
0()
1((0 0 0.00299996))
1((0 0 0.00299998))
1((0 0 0.00299994))
1((0 0 0.00299988))
0()
0()
1((0 0 0.00299997))
0()
1((0 0 -0.00299997))
0()
0()
0()
0()
0()
1((0 0 0.00299998))
1((0 0 0.00299971))
1((0 0 -0.00299973))
1((0 0 -0.00299984))
1((0 0 0.00299976))
1((0 0 -0.00299978))
0()
1((0 0 0.00299997))
1((0 0 -0.00299991))
0()
0()
0()
0()
0()
0()
1((0 0 -0.0029999))
1((0 0 -0.00299991))
1((0 0 0.00299997))
0()
1((0 0 -0.00299988))
1((0 0 0.00299991))
0()
1((0 0 -0.00299995))
0()
0()
0()
0()
0()
1((0 0 0.00299992))
1((0 0 -0.00299992))
1((0 0 0.00299991))
1((0 0 -0.00299994))
1((0 0 0.00299998))
1((0 0 -0.00299994))
1((0 0 0.00299992))
0()
1((0 0 -0.00299998))
0()
0()
1((0 0 0.00299993))
0()
0()
0()
0()
0()
1((0 0 0.00299999))
0()
0()
1((0 0 0.0029995))
1((0 0 0.00299984))
1((0 0 0.00299985))
1((0 0 -0.0029995))
1((0 0 -0.0029997))
1((0 0 0.00299982))
0()
1((0 0 -0.00299988))
1((0 0 -0.00299987))
1((0 0 0.00299977))
1((0 0 -0.00299966))
1((0 0 -0.00299987))
1((0 0 -0.00299982))
1((0 0 0.00299991))
1((0 0 0.00299995))
1((0 0 0.00299966))
1((0 0 -0.00299978))
1((0 0 0.00299999))
1((0 -2.77556e-17 0.0029997))
0()
1((0 0 0.00299988))
1((0 0 0.00299978))
1((0 0 0.00299974))
1((0 0 0.00299977))
1((0 0 0.00299976))
1((0 0 -0.00299977))
1((0 0 -0.00299978))
1((0 0 -0.00299991))
1((0 0 -0.00299986))
0()
0()
1((0 0 0.00299984))
1((0 0 0.0029999))
0()
1((0 0 0.00299988))
1((0 0 -0.00299986))
1((0 0 -0.00299979))
1((0 0 0.00299953))
1((0 0 0.0029998))
1((0 0 0.00299977))
1((0 0 0.00299988))
1((0 0 -0.00299987))
1((0 0 -0.00299986))
1((0 0 -0.00299983))
1((0 0 0.00299945))
1((0 0 -0.00299951))
0()
0()
1((0 0 -0.00299989))
1((0 0 0.00299973))
1((0 0 -0.00299982))
0()
1((0 0 0.00299969))
0()
1((0 0 0.00299977))
0()
0()
1((0 0 0.00299982))
0()
0()
1((0 0 -0.00299973))
1((0 -6.93889e-18 -0.00299965))
0()
1((0 0 -0.00299987))
1((0 0 0.00299974))
1((0 1.38778e-17 -0.00299961))
0()
1((0 0 -0.00299976))
1((0 0 0.00299958))
1((0 0 -0.00299988))
0()
0()
1((0 0 -0.0029996))
1((0 0 0.00299969))
1((0 0 -0.00299988))
1((0 0 -0.00299968))
1((0 0 0.00299975))
0()
0()
0()
1((0 0 -0.00299968))
1((0 0 -0.00299961))
1((0 0 0.00299956))
1((0 0 -0.00299955))
1((0 0 -0.00299997))
0()
0()
0()
1((0 0 0.00299977))
2((-0.00149903 -0.00259639 0) (0 0 0.0029997))
1((0 0 -0.00299967))
1((0 0 -0.00299987))
0()
1((0 0 0.00299956))
1((1.38778e-17 0 0.00299982))
1((0 0 -0.0029998))
1((0 0 0.00299974))
1((0 0 -0.00299978))
1((0 0 -0.00299968))
1((0 0 -0.00299961))
1((0 0 -0.00299999))
1((0 0 -0.00299968))
1((0 0 -0.00299973))
1((0 0 0.00299961))
1((0 0 -0.00299977))
1((0 0 0.00299952))
1((0 0 0.0029997))
1((0 0 -0.00299976))
1((0 0 0.00299979))
0()
1((0 0 -0.00299977))
1((0 0 0.00299991))
1((0 0 -0.00299997))
1((0 0 0.00299973))
1((0 0 0.00299984))
1((0 0 0.00299983))
1((0 0 -0.00299975))
1((0 0 0.00299967))
0()
1((0 0 -0.0029996))
1((0 0 0.00299955))
1((0 0 -0.00299969))
1((0 0 -0.00299981))
1((0 0 0.0029999))
1((0 0 0.00299979))
0()
1((0 0 0.0029999))
1((0 0 -0.00299993))
1((0 0 -0.00299991))
0()
0()
0()
0()
1((0 0 -0.00299993))
1((0 0 0.00299996))
1((0 0 -0.00299992))
1((0 0 -0.00299989))
1((0 0 0.0029998))
1((0 0 0.00299992))
1((0 0 0.00299994))
0()
1((0 0 -0.0029999))
1((0 0 0.0029999))
0()
0()
0()
0()
1((0 0 0.00299999))
0()
0()
1((0 -5.55112e-17 -0.00299995))
0()
0()
0()
0()
0()
0()
0()
2((-0.00149948 -0.00259718 0) (0 0 -0.00299983))
1((0 0 -0.00299984))
1((0 0 0.00299973))
0()
0()
1((0 0 -0.00299967))
1((0 0 -0.00299991))
1((0 0 -0.00299989))
1((0 0 -0.00299989))
1((0 0 0.00299985))
1((0 0 0.00299927))
1((0 0 -0.00299964))
1((0 0 0.00299992))
1((0 0 0.00299981))
0()
1((0 0 -0.00299969))
0()
1((0 0 -0.00299962))
1((0 0 -0.00299976))
1((0 0 0.00299962))
1((0 0 -0.00299981))
1((0 0 -0.00299991))
1((0 0 0.0029998))
0()
1((0 0 -0.0029998))
1((0 0 0.00299983))
1((0 0 0.00299977))
1((0 0 -0.0029999))
1((0 0 0.00299974))
0()
1((0 0 -0.00299975))
1((0 0 -0.00299983))
1((0 0 0.00299986))
0()
1((0 0 0.0029998))
1((0 0 -0.00299984))
1((0 0 -0.0029997))
1((0 0 0.00299975))
1((0 0 -0.00299981))
1((0 0 -0.00299993))
1((0 0 0.00299993))
1((0 0 -0.00299983))
0()
1((0 0 0.00299998))
0()
0()
0()
1((0 0 0.00299984))
0()
1((0 0 -0.00299983))
1((0 0 -0.00299991))
1((0 0 0.00299984))
1((0 0 -0.00299993))
1((0 0 -0.00299996))
0()
0()
0()
1((0 0 0.00299995))
1((0 0 -0.00299992))
0()
0()
0()
1((0 0 -0.0029999))
1((0 0 -0.00299995))
0()
1((0 0 0.00299992))
0()
1((0 0 0.00299999))
0()
0()
0()
1((-0.00149994 -0.00259797 0))
0()
0()
1((0 0 -0.00299983))
1((0 0 0.00299972))
1((0 0 0.00299994))
1((0 0 -0.00299996))
0()
1((0 0 0.00299983))
1((0 0 0.00299975))
1((0 0 -0.0029996))
0()
1((0 0 -0.00299972))
1((0 0 0.00299972))
1((0 0 -0.00299965))
1((0 0 0.00299974))
1((0 0 0.00299976))
1((0 0 -0.00299987))
1((0 0 -0.0029999))
1((0 0 0.00299984))
1((0 0 -0.00299969))
0()
0()
1((0 0 0.00299979))
1((0 0 -0.00299972))
1((0 0 -0.00299974))
0()
1((0 0 -0.00299999))
1((0 0 -0.00299964))
1((0 0 0.00299974))
1((0 0 0.00299968))
0()
1((0 0 0.00299984))
1((0 0 -0.00299975))
1((0 0 0.00299988))
1((0 0 0.00299989))
1((0 0 -0.00299991))
1((0 0 0.00299983))
1((0 0 0.00299981))
1((0 0 -0.00299981))
1((0 0 0.00299982))
0()
1((0 0 -0.0029999))
0()
1((0 0 0.0029999))
1((0 0 0.00299997))
1((0 0 -0.00299993))
1((0 0 -0.00299985))
1((0 0 0.00299997))
0()
0()
0()
1((0 0 -0.00299985))
0()
1((0 0 0.00299992))
0()
1((0 0 -0.00299994))
1((0 0 0.00299998))
0()
1((0 0 0.00299995))
0()
0()
1((0 0 0.00299989))
0()
0()
0()
0()
0()
0()
0()
0()
1((0 1.73472e-18 0.00299981))
0()
0()
1((0 0 0.00299978))
0()
1((0 0 -0.00299995))
1((0 0 -0.00299995))
1((1.38778e-17 0 0.00299993))
0()
1((0 0 -0.00299973))
0()
1((0 0 0.0029999))
1((0 0 0.00299993))
1((0 0 0.00299956))
1((0 0 -0.00299939))
1((0 0 0.00299977))
1((0 0 0.00299995))
1((0 0 -0.00299982))
0()
1((0 0 0.00299988))
1((0 0 -0.00299983))
1((0 0 0.00299984))
1((0 0 0.00299978))
1((0 0 -0.00299965))
1((0 0 0.00299968))
1((0 0 0.00299989))
1((0 0 0.00299992))
1((0 0 -0.00299995))
1((0 0 0.00299988))
0()
1((0 0 -0.00299976))
1((0 0 -0.00299971))
1((0 0 0.0029997))
1((0 0 -0.00299984))
1((0 0 0.0029999))
1((-1.38778e-17 0 -0.00299982))
1((0 0 -0.00299998))
1((0 0 0.00299998))
1((0 0 -0.0029999))
0()
1((0 0 0.00299996))
0()
0()
1((0 0 0.003))
1((0 0 -0.00299992))
0()
1((0 0 0.00299996))
1((0 0 0.00299986))
1((0 0 -0.00299997))
0()
1((0 0 0.00299999))
0()
1((0 0 0.00299997))
0()
1((0 0 0.00299989))
1((0 0 0.00299993))
1((0 0 -0.00299995))
0()
0()
1((0 0 -0.0029999))
0()
0()
1((0 0 -0.00299992))
0()
0()
0()
0()
0()
0()
0()
0()
1((0 8.67362e-18 0.00299997))
1((0 0 -0.00299998))
1((0 0 0.00299988))
1((0 0 -0.00299968))
1((0 0 -0.00299968))
0()
1((0 0 0.00299996))
1((0 0 -0.00299991))
0()
1((0 0 -0.00299995))
1((0 0 0.00299982))
0()
1((0 0 -0.00299994))
1((0 0 -0.00299992))
1((0 0 0.00299934))
0()
1((0 0 0.00299973))
0()
1((0 0 -0.00299993))
1((0 0 0.00299991))
1((0 0 -0.00299991))
1((0 0 0.00299959))
1((0 0 -0.00299979))
1((0 0 0.00299978))
1((0 0 -0.0029998))
1((0 0 -0.00299993))
1((0 0 0.00299997))
0()
1((0 0 -0.0029999))
0()
1((0 0 -0.0029999))
1((0 0 0.00299965))
1((0 0 -0.00299978))
1((0 0 0.00299984))
1((0 0 0.00299987))
1((0 0 -0.00299995))
1((0 0 0.00299986))
1((0 0 0.00299995))
0()
1((0 0 -0.00299991))
1((0 0 0.00299991))
1((0 0 0.00299994))
1((0 2.77556e-17 -0.00299995))
1((0 0 0.00299991))
1((0 0 -0.00299984))
0()
1((0 0 0.00299994))
1((0 0 -0.00299987))
1((0 0 0.00299996))
0()
0()
1((0 0 0.00299986))
1((0 0 -0.00299989))
1((0 0 -0.00299988))
1((0 0 -0.00299995))
1((0 0 0.00299998))
0()
1((0 0 -0.00299995))
0()
1((0 0 0.00299992))
1((0 0 0.00299996))
0()
1((0 0 -0.00299986))
1((0 0 0.00299987))
0()
0()
0()
0()
0()
0()
0()
2((-0.00149918 -0.00259665 -1.82146e-17) (-2.77556e-17 1.38778e-17 -0.00299971))
1((0 0 0.00299997))
1((0 0 0.00299989))
1((0 0 -0.00299986))
1((0 0 0.00299993))
1((0 0 0.00299978))
0()
1((0 6.93889e-18 0.00299987))
1((0 0 -0.00299991))
1((0 0 0.00299989))
1((-1.38778e-17 0 -0.00299981))
1((0 0 0.00299987))
1((0 0 0.00299986))
1((0 0 -0.00299979))
1((0 0 -0.00299957))
1((0 0 -0.00299994))
1((0 0 -0.00299985))
1((0 0 -0.00299967))
1((0 0 0.00299969))
1((0 0 -0.00299963))
1((0 0 0.00299974))
1((0 0 -0.00299947))
0()
1((0 0 -0.00299989))
1((0 0 0.00299982))
1((0 0 -0.00299984))
1((0 0 -0.00299982))
0()
0()
0()
1((0 0 0.00299985))
1((0 0 -0.00299973))
0()
0()
1((0 0 -0.00299986))
0()
1((-1.38778e-17 0 -0.00299993))
1((0 0 -0.00299989))
1((0 0 0.00299995))
0()
1((0 0 0.00299992))
1((0 0 -0.00299994))
1((0 0 -0.00299988))
1((0 0 0.00299987))
1((0 0 0.00299976))
1((0 0 -0.00299986))
0()
1((0 0 0.00299988))
1((0 0 -0.00299989))
1((0 0 0.00299989))
1((0 0 -0.0029999))
1((0 0 -0.00299995))
1((0 0 0.00299999))
1((-1.38778e-17 0 0.00299987))
1((0 0 -0.00299989))
0()
1((0 0 0.00299999))
0()
0()
1((0 0 0.00299996))
0()
0()
1((0 0 0.00299987))
1((0 0 0.00299993))
0()
0()
0()
0()
0()
0()
0()
0()
1((0 1.73472e-18 0.00299966))
1((0 0 -0.00299997))
1((0 0 0.00299972))
1((0 0 -0.00299973))
1((0 0 0.0029997))
1((0 0 -0.00299971))
1((0 0 -0.00299997))
0()
1((0 0 0.0029998))
1((0 0 -0.00299993))
0()
0()
1((0 0 0.00299984))
1((0 0 -0.00299973))
1((0 0 -0.00299989))
0()
1((0 0 0.00299977))
1((0 0 -0.00299978))
1((0 0 0.00299967))
1((0 0 -0.00299973))
1((0 0 0.00299956))
0()
1((0 0 0.00299991))
1((0 0 0.00299989))
1((0 0 -0.00299987))
0()
1((0 0 0.00299977))
1((0 0 0.00299986))
0()
1((0 0 -0.00299973))
1((0 0 0.00299976))
1((0 0 -0.00299982))
1((0 0 0.00299983))
1((0 0 -0.00299995))
1((0 0 -0.00299985))
1((0 0 0.00299987))
1((2.77556e-17 0 0.00299989))
1((0 0 -0.00299994))
0()
0()
0()
1((0 0 -0.00299996))
1((0 0 -0.00299992))
1((0 0 -0.00299978))
0()
1((0 0 0.00299992))
0()
1((0 0 -0.0029999))
1((0 0 0.00299994))
1((0 0 -0.00299996))
1((0 0 -0.00299993))
1((0 0 0.0029999))
1((0 0 -0.00299987))
1((0 0 0.00299988))
0()
1((0 0 -0.00299993))
1((0 0 0.00299996))
0()
1((0 0 0.0029999))
1((0 0 -0.00299991))
0()
1((0 0 -0.00299977))
1((0 0 -0.00299995))
0()
0()
0()
0()
0()
0()
0()
1((0 -0.00299988 4.33681e-19))
0()
1((0 0 -0.00299967))
1((0 0 0.00299989))
1((0 0 0.00299977))
1((0 0 0.00299998))
1((0 0 -0.00299998))
1((0 0 0.00299984))
1((0 0 0.00299987))
1((0 0 -0.00299973))
0()
1((0 0 -0.00299976))
1((0 0 0.00299977))
1((0 0 -0.00299971))
1((0 0 0.00299963))
0()
1((0 0 0.00299986))
1((0 0 -0.0029999))
0()
1((0 0 0.00299973))
1((0 0 -0.00299986))
1((0 0 -0.00299984))
1((0 0 0.00299985))
1((0 0 -0.00299973))
1((0 0 0.00299981))
1((0 0 0.00299986))
1((0 0 -0.00299973))
1((0 0 -0.0029998))
1((0 0 0.00299995))
1((0 0 0.00299992))
1((0 0 -0.00299987))
1((0 0 0.00299984))
1((0 0 -0.003))
0()
1((0 0 -0.00299987))
1((0 0 0.00299988))
0()
0()
1((0 0 -0.0029999))
1((0 0 0.00299988))
1((0 0 -0.0029999))
0()
1((0 0 -0.00299995))
1((0 0 0.00299992))
1((0 0 0.00299982))
0()
0()
1((0 0 -0.00299993))
1((0 0 0.00299986))
1((0 0 -0.00299993))
1((0 0 0.00299991))
0()
0()
0()
0()
1((0 0 0.00299991))
1((0 0 -0.00299985))
1((0 0 0.00299987))
1((0 0 -0.00299988))
0()
1((0 0 -0.00299991))
1((0 0 0.00299986))
1((0 0 0.00299999))
0()
1((0 0 0.0029999))
0()
1((0 0 -0.00299978))
0()
0()
0()
0()
1((0 -1.73472e-18 0.00299991))
1((0 0 0.00299972))
1((0 0 -0.00299984))
1((0 0 -0.00299973))
0()
1((0 0 0.00299991))
1((0 0 -0.00299987))
1((0 0 -0.00299984))
1((0 0 -0.00299977))
1((0 0 0.00299977))
1((0 0 0.00299975))
1((0 0 -0.00299979))
1((0 0 -0.00299994))
1((0 0 -0.00299999))
1((0 0 0.00299958))
0()
1((0 0 -0.0029999))
0()
1((0 0 0.00299991))
1((0 0 -0.0029996))
1((0 0 0.00299983))
1((0 0 -0.00299993))
1((0 0 -0.00299976))
1((0 0 0.00299982))
1((0 0 0.00299986))
1((0 0 -0.00299986))
0()
1((0 0 0.00299973))
1((0 0 -0.00299983))
0()
0()
1((0 0 0.00299982))
1((0 0 0.0029998))
1((0 0 -0.00299974))
1((0 0 0.00299968))
1((0 0 -0.00299986))
0()
0()
0()
0()
0()
1((0 0 0.00299994))
1((0 0 -0.00299992))
0()
1((0 0 0.00299988))
1((0 0 -0.00299994))
1((0 0 0.00299996))
0()
1((2.77556e-17 0 0.003))
0()
0()
1((0 0 -0.00299982))
1((0 0 0.00299981))
1((0 0 -0.00299987))
0()
0()
1((0 0 0.00299999))
1((0 0 -0.00299996))
1((0 0 0.00299998))
0()
1((0 0 -0.00299991))
0()
0()
0()
0()
0()
0()
0()
0()
0()
0()
1((0 0 -0.00299991))
0()
1((0 6.93889e-18 -0.00299992))
1((0 -6.93889e-18 -0.00299996))
1((0 0 0.00299998))
1((0 0 0.00299985))
1((0 0 -0.00299983))
1((0 0 -0.00299952))
0()
1((0 0 0.00299993))
1((0 0 -0.00299991))
1((0 0 0.00299975))
1((0 0 -0.00299991))
0()
1((0 0 0.00299982))
0()
0()
1((0 0 0.00299992))
0()
1((0 0 0.00299967))
1((0 0 -0.00299965))
1((0 0 0.00299984))
1((2.77556e-17 0 -0.00299978))
0()
0()
1((0 0 -0.00299984))
1((0 2.77556e-17 0.00299992))
1((0 0 -0.00299998))
0()
1((0 0 0.00299992))
1((0 0 -0.00299998))
1((0 0 -0.00299996))
1((0 0 -0.00299996))
1((0 0 0.00299987))
1((0 0 -0.00299996))
0()
0()
0()
0()
0()
0()
1((0 0 0.00299996))
1((2.77556e-17 0 -0.00299992))
1((0 0 0.00299991))
1((0 0 0.00299997))
0()
0()
1((0 0 0.00299996))
1((0 0 -0.00299987))
1((-1.38778e-17 0 -0.00299991))
1((0 0 0.00299991))
1((0 0 -0.00299988))
1((0 0 0.00299969))
1((0 0 0.00299988))
1((0 0 0.00299986))
1((0 0 -0.0029999))
1((0 0 -0.00299972))
0()
0()
1((-1.38778e-17 0 0.0029997))
1((0 0 -0.00299983))
1((0 0 0.0029999))
1((0 0 0.0029998))
2((-0.00149908 -0.00259648 4.33681e-19) (1.38778e-17 -6.93889e-18 0.00299994))
0()
1((0 0 -0.00299971))
1((-1.38778e-17 0 0.00299996))
1((0 0 -0.00299991))
1((0 0 -0.00299987))
2((-0.00149963 -0.00259743 4.33681e-19) (0 3.46945e-18 0.0029998))
1((-1.38778e-17 0 -0.00299994))
0()
1((0 0 -0.00299988))
0()
0()
1((0 0 0.00299986))
1((0 0 0.00299988))
1((0 0 0.00299976))
0()
0()
0()
1((0 0 0.00299983))
1((0 0 -0.00299988))
0()
1((0 0 0.00299979))
1((0 0 -0.0029999))
1((0 0 -0.00299975))
0()
1((0 0 -0.00299989))
1((0 0 0.00299994))
1((0 0 -0.00299989))
1((0 0 -0.00299988))
1((0 0 0.00299973))
1((-1.38778e-17 0 0.00299991))
1((0 0 -0.00299992))
1((0 0 -0.00299968))
1((0 0 0.00299989))
1((0 0 -0.00299993))
0()
0()
0()
1((0 0 -0.00299977))
0()
1((0 0 0.00299994))
1((0 0 0.00299992))
1((0 0 -0.00299985))
0()
1((0 0 0.003))
0()
0()
1((0 0 0.00299975))
0()
2((0 -0.00299771 0) (0 -6.93889e-18 0.00299973))
1((0 -1.73472e-18 -0.00299989))
1((0 0 0.0029998))
0()
1((0 0 -0.0029997))
1((0 0 -0.00299986))
0()
1((0 0 0.00299999))
1((0 0 0.00299974))
1((0 0 0.00299984))
1((0 0 -0.00299985))
1((0 0 -0.0029997))
1((0 0 0.00299986))
1((0 0 0.00299979))
1((0 0 0.0029999))
1((0 0 0.00299971))
0()
0()
1((0 0 -0.00299975))
1((0 0 0.00299978))
0()
0()
1((0 0 -0.00299972))
1((0 0 0.00299985))
1((0 0 -0.00299977))
1((0 0 -0.00299967))
1((0 0 -0.00299984))
1((0 0 0.00299976))
1((0 0 -0.00299982))
1((0 0 0.00299978))
0()
1((0 0 -0.00299995))
1((0 0 -0.00299989))
1((0 0 0.00299993))
0()
1((0 0 -0.00299993))
1((0 0 0.00299996))
1((0 0 0.00299983))
0()
1((0 0 -0.00299989))
1((0 0 0.00299972))
1((0 0 -0.00299982))
0()
1((0 0 -0.00299993))
0()
1((0 0 0.00299998))
1((0 0 -0.00299999))
1((0 0 0.00299996))
0()
1((0 0 0.00299988))
1((0 0 0.00299997))
1((0 0 -0.00299994))
1((0 0 0.00299992))
1((0 0 -0.00299989))
1((0 0 0.00299986))
1((0 0 -0.00299986))
0()
0()
1((0 0 0.00299991))
1((0 0 -0.00299993))
0()
1((0 0 0.00299973))
0()
0()
0()
1((0 0 -0.00299981))
1((0 0 0.00299984))
1((0 0 -0.00299989))
0()
0()
1((0 0 0.00299984))
1((0 0 0.00299982))
1((0 0 0.0029998))
1((0 0 0.00299988))
0()
1((0 0 -0.00299964))
1((0 0 -0.00299993))
0()
1((2.77556e-17 0 0.00299984))
1((0 0 0.00299983))
0()
1((0 0 0.00299985))
1((0 0 -0.00299967))
1((0 0 0.00299964))
1((0 0 -0.00299943))
1((0 0 -0.00299985))
1((0 0 0.0029998))
0()
0()
1((0 0 -0.00299982))
1((0 0 0.00299976))
0()
1((0 0 0.00299983))
1((0 0 -0.00299994))
0()
0()
1((0 0 0.00299978))
1((0 0 0.00299986))
1((0 0 -0.00299968))
1((0 0 0.00299987))
1((0 0 0.00299982))
1((0 0 -0.00299979))
1((0 0 -0.00299982))
0()
1((0 0 0.00299988))
0()
1((0 0 -0.00299984))
1((0 0 -0.00299997))
1((0 0 -0.00299997))
1((0 0 -0.00299986))
1((0 0 -0.00299994))
1((0 0 -0.00299996))
1((0 0 0.00299995))
1((0 0 0.00299987))
1((0 0 -0.00299982))
1((0 0 0.00299996))
1((0 0 -0.00299992))
1((0 0 -0.00299985))
1((0 0 0.00299987))
1((0 0 -0.00299988))
0()
0()
0()
0()
1((0 0 0.00299997))
1((0 0 -0.0029999))
1((0 0 0.00299993))
1((0 0 0.00299987))
1((0 0 -0.00299987))
0()
0()
0()
1((0 0 -0.00299999))
0()
0()
0()
1((0 0 -0.00299966))
1((0 0 -0.00299977))
1((0 0 0.00299988))
1((0 0 0.00299966))
1((0 0 -0.00299952))
1((0 0 0.00299973))
1((0 -6.93889e-18 -0.00299978))
1((0 0 0.0029997))
1((0 0 -0.00299959))
1((0 0 0.00299958))
1((0 0 0.00299981))
1((0 0 -0.00299973))
1((0 0 -0.00299981))
1((0 0 0.00299971))
1((0 0 -0.00299976))
1((0 0 0.00299979))
1((0 0 -0.00299985))
1((0 0 -0.00299972))
1((0 0 0.00299977))
1((0 0 0.00299975))
1((0 0 -0.0029999))
1((0 0 0.00299987))
1((0 0 0.00299981))
1((0 0 0.00299986))
1((0 0 -0.00299981))
0()
0()
1((0 0 -0.00299983))
1((0 0 0.00299986))
0()
1((0 0 0.00299976))
0()
1((0 0 0.00299983))
1((0 0 0.00299984))
0()
1((0 0 -0.00299989))
0()
1((0 0 0.00299981))
1((0 0 0.00299979))
1((0 0 -0.00299971))
1((0 0 0.00299975))
1((0 0 0.00299989))
0()
1((0 0 0.00299984))
1((0 0 0.00299986))
1((0 0 -0.00299991))
0()
1((0 0 0.00299999))
0()
1((0 0 -0.00299989))
1((0 0 0.00299981))
1((0 0 0.00299987))
1((0 0 -0.00299981))
1((0 0 0.00299987))