/*--------------------------------*- C++ -*----------------------------------*\
  =========                 |
  \\      /  F ield         | OpenFOAM: The Open Source CFD Toolbox
   \\    /   O peration     | Website:  https://openfoam.org
    \\  /    A nd           | Version:  8
     \\/     M anipulation  |
\*---------------------------------------------------------------------------*/
FoamFile
{
    version     2.0;
    format      ascii;
    class       labelFieldField;
    location    "0/lagrangian/kinematicCloud";
    object      collisionRecordsPairAccessed;
}
// * * * * * * * * * * * * * * * * * * * * * * * * * * * * * * * * * * * * * //


3300
(
1(0)
1(0)
2{0}
4{0}
2{0}
2{0}
2{0}
3{0}
2{0}
3{0}
3{0}
3{0}
2{0}
2{0}
2{0}
4{0}
3{0}
3{0}
3{0}
2{0}
3{0}
2{0}
3{0}
3{0}
2{0}
2{0}
2{0}
1(0)
0()
2{0}
3{0}
2{0}
3{0}
2{0}
3{0}
3{0}
2{0}
2{0}
3{0}
3{0}
1(0)
3{0}
3{0}
2{0}
4{0}
4{0}
3{0}
3{0}
3{0}
2{0}
2{0}
1(0)
1(0)
4{0}
4{0}
2{0}
3{0}
2{0}
2{0}
3{0}
3{0}
2{0}
3{0}
2{0}
5{0}
2{0}
3{0}
1(0)
3{0}
3{0}
2{0}
5{0}
4{0}
4{0}
2{0}
4{0}
3{0}
2{0}
4{0}
3{0}
5{0}
4{0}
2{0}
2{0}
4{0}
3{0}
4{0}
3{0}
4{0}
3{0}
1(0)
2{0}
4{0}
3{0}
4{0}
3{0}
3{0}
1(0)
3{0}
2{0}
3{0}
1(0)
1(0)
0()
0()
4{0}
5{0}
3{0}
4{0}
3{0}
4{0}
3{0}
4{0}
2{0}
1(0)
4{0}
1(0)
2{0}
4{0}
3{0}
3{0}
4{0}
3{0}
4{0}
4{0}
3{0}
4{0}
4{0}
3{0}
2{0}
3{0}
3{0}
4{0}
3{0}
4{0}
2{0}
2{0}
2{0}
5{0}
3{0}
3{0}
3{0}
4{0}
4{0}
2{0}
3{0}
3{0}
3{0}
4{0}
3{0}
1(0)
2{0}
3{0}
2{0}
3{0}
4{0}
2{0}
1(0)
4{0}
2{0}
2{0}
3{0}
3{0}
5{0}
5{0}
4{0}
3{0}
3{0}
2{0}
4{0}
2{0}
2{0}
3{0}
2{0}
1(0)
3{0}
3{0}
4{0}
5{0}
5{0}
5{0}
3{0}
5{0}
3{0}
3{0}
5{0}
4{0}
5{0}
2{0}
3{0}
4{0}
2{0}
2{0}
4{0}
4{0}
4{0}
4{0}
3{0}
3{0}
2{0}
4{0}
3{0}
3{0}
4{0}
5{0}
4{0}
4{0}
4{0}
4{0}
3{0}
2{0}
1(0)
3{0}
5{0}
3{0}
2{0}
3{0}
4{0}
3{0}
4{0}
3{0}
4{0}
4{0}
3{0}
3{0}
3{0}
4{0}
4{0}
3{0}
3{0}
3{0}
4{0}
4{0}
4{0}
3{0}
4{0}
3{0}
3{0}
5{0}
4{0}
4{0}
2{0}
3{0}
3{0}
4{0}
3{0}
0()
2{0}
3{0}
5{0}
1(0)
3{0}
5{0}
3{0}
3{0}
3{0}
4{0}
2{0}
3{0}
2{0}
4{0}
5{0}
4{0}
3{0}
3{0}
4{0}
2{0}
4{0}
3{0}
3{0}
2{0}
4{0}
3{0}
4{0}
2{0}
3{0}
5{0}
3{0}
4{0}
3{0}
2{0}
2{0}
4{0}
2{0}
4{0}
5{0}
4{0}
4{0}
4{0}
4{0}
2{0}
2{0}
3{0}
4{0}
3{0}
4{0}
5{0}
5{0}
3{0}
5{0}
2{0}
3{0}
2{0}
3{0}
4{0}
3{0}
2{0}
4{0}
5{0}
4{0}
4{0}
3{0}
2{0}
4{0}
3{0}
1(0)
2{0}
0()
3{0}
1(0)
3{0}
4{0}
3{0}
4{0}
4{0}
3{0}
4{0}
3{0}
4{0}
4{0}
3{0}
3{0}
4{0}
4{0}
3{0}
4{0}
4{0}
3{0}
3{0}
3{0}
2{0}
3{0}
2{0}
4{0}
3{0}
4{0}
4{0}
2{0}
3{0}
3{0}
5{0}
3{0}
2{0}
4{0}
3{0}
2{0}
4{0}
4{0}
3{0}
2{0}
3{0}
2{0}
3{0}
3{0}
4{0}
3{0}
4{0}
4{0}
4{0}
3{0}
4{0}
4{0}
2{0}
4{0}
4{0}
4{0}
2{0}
2{0}
4{0}
4{0}
4{0}
3{0}
4{0}
4{0}
3{0}
2{0}
3{0}
2{0}
0()
1(0)
3{0}
3{0}
1(0)
3{0}
5{0}
2{0}
3{0}
3{0}
2{0}
2{0}
2{0}
3{0}
4{0}
4{0}
3{0}
3{0}
4{0}
4{0}
4{0}
3{0}
1(0)
2{0}
5{0}
3{0}
2{0}
4{0}
4{0}
5{0}
3{0}
3{0}
5{0}
3{0}
3{0}
2{0}
4{0}
1(0)
3{0}
4{0}
3{0}
4{0}
2{0}
4{0}
2{0}
4{0}
2{0}
3{0}
4{0}
3{0}
4{0}
3{0}
4{0}
4{0}
3{0}
5{0}
4{0}
4{0}
5{0}
4{0}
2{0}
4{0}
2{0}
2{0}
4{0}
3{0}
4{0}
4{0}
4{0}
3{0}
2{0}
1(0)
3{0}
4{0}
2{0}
3{0}
1(0)
2{0}
4{0}
4{0}
3{0}
3{0}
4{0}
4{0}
4{0}
4{0}
4{0}
4{0}
2{0}
4{0}
1(0)
3{0}
3{0}
3{0}
4{0}
4{0}
4{0}
3{0}
3{0}
4{0}
4{0}
5{0}
3{0}
4{0}
4{0}
4{0}
4{0}
3{0}
1(0)
2{0}
3{0}
4{0}
4{0}
3{0}
4{0}
2{0}
4{0}
3{0}
3{0}
3{0}
4{0}
4{0}
4{0}
3{0}
4{0}
3{0}
3{0}
4{0}
4{0}
4{0}
4{0}
4{0}
1(0)
2{0}
4{0}
3{0}
4{0}
3{0}
3{0}
3{0}
1(0)
2{0}
1(0)
3{0}
4{0}
4{0}
2{0}
3{0}
4{0}
4{0}
4{0}
4{0}
4{0}
3{0}
3{0}
3{0}
4{0}
5{0}
2{0}
4{0}
4{0}
3{0}
4{0}
4{0}
4{0}
3{0}
2{0}
3{0}
2{0}
4{0}
4{0}
5{0}
4{0}
4{0}
2{0}
3{0}
4{0}
4{0}
3{0}
3{0}
4{0}
4{0}
5{0}
5{0}
5{0}
3{0}
3{0}
3{0}
3{0}
2{0}
4{0}
3{0}
5{0}
3{0}
5{0}
4{0}
3{0}
5{0}
2{0}
3{0}
4{0}
4{0}
4{0}
3{0}
2{0}
4{0}
4{0}
3{0}
4{0}
4{0}
2{0}
2{0}
3{0}
2{0}
3{0}
3{0}
3{0}
3{0}
3{0}
2{0}
3{0}
3{0}
2{0}
3{0}
3{0}
4{0}
3{0}
5{0}
5{0}
4{0}
4{0}
4{0}
3{0}
4{0}
4{0}
4{0}
4{0}
3{0}
3{0}
4{0}
4{0}
4{0}
3{0}
3{0}
3{0}
3{0}
4{0}
4{0}
4{0}
3{0}
3{0}
4{0}
5{0}
5{0}
5{0}
4{0}
3{0}
3{0}
4{0}
3{0}
4{0}
2{0}
5{0}
4{0}
6{0}
5{0}
5{0}
3{0}
3{0}
4{0}
4{0}
3{0}
5{0}
4{0}
3{0}
3{0}
4{0}
3{0}
3{0}
4{0}
4{0}
4{0}
3{0}
2{0}
2{0}
3{0}
1(0)
2{0}
4{0}
4{0}
3{0}
4{0}
4{0}
2{0}
2{0}
4{0}
6{0}
6{0}
6{0}
5{0}
3{0}
5{0}
5{0}
4{0}
4{0}
4{0}
4{0}
4{0}
4{0}
3{0}
2{0}
4{0}
4{0}
4{0}
2{0}
2{0}
2{0}
3{0}
3{0}
3{0}
4{0}
4{0}
4{0}
4{0}
3{0}
1(0)
2{0}
2{0}
4{0}
4{0}
3{0}
4{0}
5{0}
3{0}
5{0}
3{0}
2{0}
2{0}
4{0}
3{0}
5{0}
4{0}
4{0}
3{0}
3{0}
3{0}
2{0}
5{0}
6{0}
4{0}
4{0}
2{0}
1(0)
2{0}
4{0}
4{0}
2{0}
3{0}
4{0}
2{0}
4{0}
4{0}
4{0}
3{0}
4{0}
3{0}
3{0}
3{0}
4{0}
3{0}
2{0}
3{0}
4{0}
2{0}
4{0}
4{0}
5{0}
5{0}
4{0}
2{0}
1(0)
3{0}
5{0}
4{0}
5{0}
4{0}
4{0}
3{0}
3{0}
3{0}
3{0}
2{0}
3{0}
2{0}
2{0}
4{0}
2{0}
4{0}
5{0}
3{0}
2{0}
3{0}
3{0}
2{0}
4{0}
2{0}
0()
2{0}
2{0}
3{0}
2{0}
3{0}
4{0}
4{0}
3{0}
3{0}
3{0}
3{0}
2{0}
4{0}
3{0}
4{0}
3{0}
3{0}
2{0}
4{0}
1(0)
1(0)
3{0}
3{0}
5{0}
4{0}
5{0}
4{0}
4{0}
4{0}
4{0}
6{0}
5{0}
4{0}
4{0}
4{0}
4{0}
4{0}
2{0}
4{0}
3{0}
3{0}
4{0}
3{0}
3{0}
3{0}
3{0}
4{0}
3{0}
4{0}
4{0}
2{0}
3{0}
3{0}
4{0}
5{0}
6{0}
6{0}
4{0}
3{0}
4{0}
4{0}
5{0}
3{0}
3{0}
3{0}
4{0}
5{0}
6{0}
5{0}
5{0}
5{0}
5{0}
3{0}
4{0}
4{0}
5{0}
4{0}
3{0}
5{0}
3{0}
3{0}
3{0}
4{0}
2{0}
3{0}
5{0}
4{0}
3{0}
4{0}
4{0}
3{0}
4{0}
2{0}
3{0}
4{0}
4{0}
5{0}
5{0}
4{0}
5{0}
3{0}
4{0}
4{0}
4{0}
4{0}
3{0}
4{0}
2{0}
1(0)
3{0}
3{0}
4{0}
5{0}
2{0}
3{0}
4{0}
4{0}
4{0}
4{0}
4{0}
5{0}
2{0}
3{0}
3{0}
5{0}
2{0}
5{0}
5{0}
4{0}
5{0}
4{0}
5{0}
5{0}
3{0}
3{0}
3{0}
4{0}
3{0}
4{0}
2{0}
4{0}
3{0}
3{0}
4{0}
2{0}
3{0}
4{0}
4{0}
3{0}
4{0}
1(0)
4{0}
4{0}
3{0}
4{0}
2{0}
3{0}
2{0}
4{0}
4{0}
3{0}
3{0}
3{0}
3{0}
5{0}
5{0}
5{0}
6{0}
4{0}
2{0}
3{0}
3{0}
4{0}
3{0}
3{0}
2{0}
3{0}
1(0)
0()
3{0}
4{0}
4{0}
3{0}
3{0}
3{0}
5{0}
3{0}
3{0}
3{0}
4{0}
3{0}
5{0}
4{0}
4{0}
4{0}
4{0}
5{0}
3{0}
4{0}
4{0}
4{0}
4{0}
3{0}
5{0}
4{0}
5{0}
3{0}
4{0}
2{0}
3{0}
3{0}
3{0}
2{0}
3{0}
3{0}
5{0}
4{0}
4{0}
2{0}
4{0}
3{0}
4{0}
3{0}
4{0}
2{0}
4{0}
4{0}
4{0}
5{0}
3{0}
4{0}
3{0}
3{0}
4{0}
3{0}
4{0}
5{0}
6{0}
5{0}
3{0}
4{0}
3{0}
4{0}
4{0}
4{0}
3{0}
3{0}
4{0}
3{0}
0()
1(0)
1(0)
3{0}
3{0}
5{0}
4{0}
3{0}
2{0}
3{0}
5{0}
5{0}
3{0}
3{0}
2{0}
4{0}
3{0}
4{0}
5{0}
3{0}
3{0}
2{0}
3{0}
4{0}
4{0}
4{0}
3{0}
3{0}
3{0}
4{0}
4{0}
4{0}
2{0}
3{0}
5{0}
2{0}
3{0}
3{0}
2{0}
2{0}
4{0}
4{0}
4{0}
3{0}
3{0}
4{0}
3{0}
4{0}
4{0}
3{0}
4{0}
3{0}
3{0}
4{0}
3{0}
4{0}
3{0}
5{0}
4{0}
4{0}
3{0}
1(0)
2{0}
3{0}
3{0}
3{0}
3{0}
2{0}
3{0}
4{0}
3{0}
1(0)
4{0}
2{0}
2{0}
3{0}
2{0}
4{0}
2{0}
5{0}
2{0}
5{0}
5{0}
3{0}
3{0}
3{0}
4{0}
3{0}
5{0}
4{0}
3{0}
2{0}
3{0}
5{0}
3{0}
4{0}
4{0}
4{0}
4{0}
3{0}
4{0}
2{0}
4{0}
4{0}
4{0}
4{0}
3{0}
4{0}
4{0}
4{0}
4{0}
4{0}
5{0}
4{0}
3{0}
2{0}
4{0}
2{0}
2{0}
3{0}
2{0}
3{0}
4{0}
4{0}
3{0}
3{0}
4{0}
5{0}
3{0}
3{0}
4{0}
4{0}
3{0}
4{0}
5{0}
4{0}
3{0}
4{0}
4{0}
4{0}
4{0}
2{0}
1(0)
4{0}
1(0)
4{0}
5{0}
3{0}
3{0}
3{0}
3{0}
2{0}
3{0}
4{0}
4{0}
3{0}
4{0}
5{0}
3{0}
4{0}
4{0}
2{0}
3{0}
4{0}
5{0}
3{0}
4{0}
4{0}
4{0}
3{0}
4{0}
4{0}
3{0}
3{0}
4{0}
4{0}
3{0}
4{0}
3{0}
4{0}
3{0}
3{0}
5{0}
4{0}
3{0}
3{0}
3{0}
4{0}
3{0}
3{0}
4{0}
3{0}
3{0}
4{0}
4{0}
5{0}
3{0}
2{0}
3{0}
3{0}
3{0}
4{0}
4{0}
3{0}
4{0}
5{0}
5{0}
3{0}
4{0}
4{0}
3{0}
4{0}
4{0}
1(0)
3{0}
3{0}
3{0}
4{0}
3{0}
5{0}
2{0}
5{0}
4{0}
4{0}
4{0}
4{0}
4{0}
4{0}
3{0}
3{0}
4{0}
3{0}
2{0}
4{0}
2{0}
5{0}
3{0}
4{0}
4{0}
3{0}
3{0}
3{0}
3{0}
2{0}
3{0}
4{0}
3{0}
2{0}
4{0}
2{0}
3{0}
3{0}
3{0}
4{0}
4{0}
4{0}
4{0}
4{0}
4{0}
3{0}
4{0}
3{0}
4{0}
3{0}
4{0}
3{0}
4{0}
5{0}
4{0}
4{0}
4{0}
1(0)
3{0}
3{0}
2{0}
4{0}
5{0}
6{0}
2{0}
4{0}
4{0}
2{0}
4{0}
4{0}
1(0)
2{0}
2{0}
1(0)
4{0}
4{0}
4{0}
3{0}
4{0}
2{0}
5{0}
3{0}
2{0}
4{0}
3{0}
5{0}
2{0}
2{0}
3{0}
2{0}
5{0}
2{0}
4{0}
2{0}
3{0}
4{0}
4{0}
1(0)
4{0}
3{0}
5{0}
4{0}
4{0}
2{0}
4{0}
4{0}
5{0}
3{0}
4{0}
5{0}
4{0}
2{0}
3{0}
3{0}
4{0}
4{0}
2{0}
4{0}
2{0}
3{0}
3{0}
4{0}
3{0}
4{0}
4{0}
4{0}
4{0}
4{0}
3{0}
3{0}
4{0}
3{0}
4{0}
5{0}
5{0}
4{0}
3{0}
5{0}
2{0}
3{0}
4{0}
1(0)
2{0}
2{0}
4{0}
4{0}
2{0}
3{0}
1(0)
4{0}
3{0}
4{0}
2{0}
3{0}
5{0}
4{0}
4{0}
2{0}
4{0}
3{0}
3{0}
4{0}
3{0}
3{0}
2{0}
4{0}
4{0}
2{0}
3{0}
3{0}
2{0}
3{0}
3{0}
4{0}
3{0}
2{0}
3{0}
2{0}
3{0}
2{0}
3{0}
5{0}
4{0}
2{0}
2{0}
5{0}
4{0}
3{0}
2{0}
3{0}
5{0}
3{0}
4{0}
3{0}
4{0}
2{0}
4{0}
4{0}
5{0}
3{0}
2{0}
2{0}
3{0}
4{0}
5{0}
3{0}
2{0}
3{0}
4{0}
3{0}
2{0}
5{0}
1(0)
3{0}
4{0}
3{0}
4{0}
1(0)
3{0}
3{0}
3{0}
5{0}
3{0}
3{0}
3{0}
3{0}
2{0}
4{0}
2{0}
3{0}
3{0}
5{0}
4{0}
4{0}
4{0}
4{0}
3{0}
3{0}
4{0}
3{0}
4{0}
3{0}
3{0}
2{0}
4{0}
4{0}
2{0}
4{0}
4{0}
3{0}
4{0}
2{0}
2{0}
2{0}
3{0}
2{0}
2{0}
4{0}
3{0}
3{0}
3{0}
3{0}
2{0}
2{0}
3{0}
4{0}
3{0}
2{0}
3{0}
4{0}
2{0}
3{0}
5{0}
4{0}
3{0}
4{0}
2{0}
3{0}
2{0}
4{0}
2{0}
3{0}
4{0}
2{0}
4{0}
4{0}
2{0}
3{0}
3{0}
5{0}
4{0}
5{0}
2{0}
3{0}
4{0}
5{0}
4{0}
3{0}
4{0}
2{0}
4{0}
4{0}
3{0}
5{0}
2{0}
4{0}
3{0}
3{0}
2{0}
3{0}
4{0}
4{0}
2{0}
4{0}
2{0}
2{0}
2{0}
3{0}
4{0}
2{0}
2{0}
4{0}
3{0}
2{0}
2{0}
2{0}
3{0}
3{0}
4{0}
3{0}
1(0)
2{0}
3{0}
3{0}
3{0}
4{0}
4{0}
4{0}
5{0}
3{0}
4{0}
3{0}
3{0}
4{0}
3{0}
3{0}
4{0}
2{0}
4{0}
5{0}
3{0}
4{0}
3{0}
2{0}
4{0}
4{0}
4{0}
2{0}
3{0}
4{0}
3{0}
4{0}
4{0}
3{0}
1(0)
4{0}
4{0}
2{0}
2{0}
4{0}
4{0}
3{0}
3{0}
3{0}
4{0}
2{0}
4{0}
2{0}
3{0}
3{0}
3{0}
3{0}
6{0}
3{0}
3{0}
4{0}
2{0}
4{0}
4{0}
3{0}
4{0}
4{0}
2{0}
2{0}
4{0}
2{0}
3{0}
4{0}
4{0}
2{0}
3{0}
4{0}
2{0}
2{0}
4{0}
4{0}
3{0}
4{0}
3{0}
3{0}
2{0}
4{0}
3{0}
2{0}
3{0}
3{0}
2{0}
2{0}
4{0}
2{0}
4{0}
4{0}
4{0}
3{0}
4{0}
4{0}
3{0}
4{0}
4{0}
4{0}
3{0}
3{0}
2{0}
3{0}
2{0}
3{0}
4{0}
4{0}
2{0}
3{0}
3{0}
4{0}
4{0}
3{0}
3{0}
3{0}
3{0}
4{0}
3{0}
3{0}
4{0}
3{0}
4{0}
2{0}
3{0}
4{0}
1(0)
3{0}
3{0}
3{0}
3{0}
4{0}
4{0}
5{0}
2{0}
1(0)
3{0}
3{0}
4{0}
4{0}
3{0}
3{0}
5{0}
4{0}
4{0}
5{0}
2{0}
3{0}
4{0}
4{0}
5{0}
3{0}
4{0}
3{0}
2{0}
3{0}
4{0}
5{0}
4{0}
3{0}
5{0}
5{0}
4{0}
2{0}
4{0}
4{0}
4{0}
3{0}
3{0}
2{0}
5{0}
4{0}
5{0}
2{0}
4{0}
3{0}
3{0}
4{0}
3{0}
4{0}
4{0}
4{0}
4{0}
4{0}
4{0}
3{0}
3{0}
3{0}
4{0}
2{0}
4{0}
5{0}
5{0}
5{0}
4{0}
4{0}
5{0}
1(0)
3{0}
2{0}
2{0}
3{0}
4{0}
4{0}
3{0}
2{0}
4{0}
3{0}
4{0}
4{0}
5{0}
4{0}
4{0}
5{0}
4{0}
4{0}
2{0}
5{0}
4{0}
5{0}
4{0}
3{0}
3{0}
4{0}
3{0}
4{0}
4{0}
4{0}
5{0}
5{0}
4{0}
5{0}
4{0}
4{0}
3{0}
4{0}
3{0}
3{0}
5{0}
4{0}
3{0}
5{0}
4{0}
4{0}
2{0}
3{0}
3{0}
4{0}
3{0}
3{0}
3{0}
3{0}
5{0}
5{0}
3{0}
4{0}
4{0}
4{0}
3{0}
3{0}
3{0}
4{0}
5{0}
5{0}
5{0}
3{0}
5{0}
5{0}
5{0}
4{0}
2{0}
2{0}
2{0}
2{0}
4{0}
4{0}
2{0}
4{0}
2{0}
5{0}
4{0}
3{0}
2{0}
2{0}
3{0}
3{0}
3{0}
3{0}
4{0}
5{0}
3{0}
3{0}
4{0}
4{0}
3{0}
2{0}
2{0}
3{0}
5{0}
5{0}
4{0}
5{0}
5{0}
5{0}
4{0}
4{0}
4{0}
5{0}
5{0}
4{0}
5{0}
4{0}
5{0}
4{0}
5{0}
3{0}
3{0}
4{0}
3{0}
3{0}
3{0}
3{0}
3{0}
4{0}
3{0}
4{0}
4{0}
4{0}
4{0}
5{0}
3{0}
2{0}
3{0}
5{0}
5{0}
6{0}
3{0}
5{0}
4{0}
3{0}
4{0}
4{0}
3{0}
2{0}
2{0}
4{0}
3{0}
2{0}
3{0}
2{0}
3{0}
2{0}
5{0}
1(0)
4{0}
4{0}
2{0}
3{0}
4{0}
3{0}
4{0}
4{0}
4{0}
4{0}
4{0}
3{0}
3{0}
4{0}
3{0}
4{0}
4{0}
4{0}
4{0}
3{0}
4{0}
4{0}
4{0}
4{0}
4{0}
4{0}
3{0}
4{0}
5{0}
6{0}
5{0}
4{0}
3{0}
4{0}
3{0}
4{0}
3{0}
5{0}
4{0}
4{0}
4{0}
4{0}
2{0}
2{0}
3{0}
5{0}
6{0}
5{0}
5{0}
5{0}
3{0}
5{0}
5{0}
5{0}
5{0}
4{0}
5{0}
5{0}
5{0}
3{0}
1(0)
2{0}
3{0}
3{0}
4{0}
3{0}
4{0}
3{0}
2{0}
3{0}
2{0}
4{0}
3{0}
4{0}
3{0}
3{0}
3{0}
5{0}
4{0}
2{0}
3{0}
4{0}
3{0}
4{0}
4{0}
4{0}
3{0}
4{0}
5{0}
4{0}
3{0}
4{0}
5{0}
4{0}
4{0}
3{0}
3{0}
3{0}
3{0}
5{0}
5{0}
4{0}
4{0}
3{0}
3{0}
3{0}
3{0}
4{0}
3{0}
3{0}
3{0}
3{0}
4{0}
4{0}
2{0}
3{0}
5{0}
6{0}
6{0}
6{0}
6{0}
5{0}
3{0}
4{0}
4{0}
3{0}
4{0}
4{0}
5{0}
5{0}
4{0}
1(0)
3{0}
5{0}
2{0}
4{0}
4{0}
4{0}
3{0}
2{0}
4{0}
3{0}
2{0}
4{0}
4{0}
2{0}
3{0}
4{0}
3{0}
5{0}
5{0}
4{0}
4{0}
3{0}
2{0}
3{0}
2{0}
3{0}
4{0}
3{0}
4{0}
3{0}
3{0}
4{0}
2{0}
4{0}
3{0}
3{0}
4{0}
3{0}
5{0}
4{0}
5{0}
5{0}
3{0}
4{0}
4{0}
4{0}
4{0}
4{0}
3{0}
5{0}
4{0}
3{0}
3{0}
5{0}
3{0}
6{0}
6{0}
6{0}
6{0}
6{0}
6{0}
5{0}
5{0}
3{0}
4{0}
4{0}
4{0}
4{0}
3{0}
2{0}
1(0)
3{0}
3{0}
4{0}
3{0}
5{0}
4{0}
4{0}
4{0}
4{0}
3{0}
3{0}
4{0}
4{0}
3{0}
3{0}
3{0}
3{0}
4{0}
2{0}
4{0}
4{0}
1(0)
2{0}
4{0}
4{0}
4{0}
4{0}
2{0}
1(0)
2{0}
3{0}
2{0}
3{0}
4{0}
3{0}
4{0}
2{0}
3{0}
4{0}
4{0}
4{0}
5{0}
3{0}
4{0}
3{0}
4{0}
3{0}
2{0}
2{0}
3{0}
4{0}
5{0}
4{0}
6{0}
5{0}
5{0}
5{0}
6{0}
6{0}
6{0}
6{0}
6{0}
4{0}
5{0}
4{0}
4{0}
4{0}
4{0}
3{0}
2{0}
0()
3{0}
3{0}
4{0}
3{0}
4{0}
3{0}
3{0}
3{0}
5{0}
4{0}
4{0}
5{0}
3{0}
3{0}
4{0}
3{0}
2{0}
5{0}
3{0}
5{0}
4{0}
3{0}
4{0}
3{0}
3{0}
3{0}
2{0}
3{0}
4{0}
4{0}
3{0}
4{0}
3{0}
4{0}
4{0}
3{0}
4{0}
3{0}
4{0}
2{0}
4{0}
3{0}
3{0}
3{0}
3{0}
3{0}
4{0}
4{0}
4{0}
5{0}
6{0}
4{0}
6{0}
5{0}
5{0}
6{0}
6{0}
6{0}
5{0}
5{0}
5{0}
2{0}
3{0}
5{0}
4{0}
4{0}
3{0}
5{0}
1(0)
0()
2{0}
4{0}
2{0}
4{0}
3{0}
3{0}
3{0}
4{0}
5{0}
5{0}
3{0}
4{0}
3{0}
2{0}
4{0}
4{0}
4{0}
2{0}
4{0}
4{0}
3{0}
3{0}
4{0}
3{0}
2{0}
3{0}
5{0}
5{0}
6{0}
5{0}
5{0}
6{0}
5{0}
4{0}
3{0}
4{0}
2{0}
2{0}
5{0}
4{0}
3{0}
3{0}
5{0}
2{0}
1(0)
5{0}
5{0}
6{0}
6{0}
6{0}
4{0}
3{0}
4{0}
5{0}
4{0}
2{0}
3{0}
5{0}
3{0}
3{0}
5{0}
3{0}
1(0)
5{0}
5{0}
6{0}
5{0}
6{0}
5{0}
4{0}
4{0}
4{0}
3{0}
1(0)
5{0}
4{0}
5{0}
5{0}
3{0}
4{0}
2{0}
2{0}
3{0}
4{0}
4{0}
4{0}
3{0}
4{0}
5{0}
2{0}
3{0}
4{0}
4{0}
3{0}
4{0}
3{0}
4{0}
4{0}
3{0}
5{0}
5{0}
3{0}
4{0}
3{0}
3{0}
4{0}
4{0}
3{0}
4{0}
3{0}
2{0}
6{0}
2{0}
3{0}
2{0}
3{0}
3{0}
2{0}
2{0}
4{0}
4{0}
3{0}
2{0}
2{0}
4{0}
3{0}
4{0}
3{0}
3{0}
3{0}
3{0}
2{0}
2{0}
4{0}
5{0}
3{0}
4{0}
4{0}
3{0}
3{0}
3{0}
4{0}
4{0}
1(0)
3{0}
2{0}
1(0)
2{0}
3{0}
4{0}
2{0}
4{0}
5{0}
4{0}
4{0}
4{0}
3{0}
3{0}
3{0}
4{0}
4{0}
5{0}
5{0}
3{0}
3{0}
3{0}
4{0}
3{0}
3{0}
3{0}
3{0}
3{0}
2{0}
3{0}
3{0}
2{0}
3{0}
1(0)
1(0)
2{0}
2{0}
4{0}
4{0}
4{0}
4{0}
3{0}
3{0}
3{0}
3{0}
4{0}
4{0}
5{0}
5{0}
3{0}
4{0}
4{0}
2{0}
3{0}
3{0}
5{0}
4{0}
3{0}
3{0}
2{0}
4{0}
4{0}
3{0}
3{0}
4{0}
3{0}
4{0}
3{0}
4{0}
4{0}
2{0}
4{0}
4{0}
3{0}
1(0)
3{0}
4{0}
4{0}
4{0}
3{0}
3{0}
2{0}
4{0}
4{0}
3{0}
3{0}
4{0}
4{0}
5{0}
4{0}
5{0}
5{0}
5{0}
4{0}
4{0}
4{0}
3{0}
1(0)
3{0}
2{0}
3{0}
2{0}
4{0}
3{0}
4{0}
6{0}
3{0}
4{0}
2{0}
4{0}
3{0}
3{0}
4{0}
4{0}
3{0}
4{0}
1(0)
4{0}
5{0}
3{0}
3{0}
3{0}
4{0}
4{0}
4{0}
4{0}
4{0}
3{0}
3{0}
3{0}
3{0}
3{0}
2{0}
2{0}
3{0}
4{0}
4{0}
2{0}
5{0}
2{0}
4{0}
4{0}
2{0}
3{0}
5{0}
5{0}
3{0}
5{0}
4{0}
5{0}
5{0}
5{0}
6{0}
4{0}
2{0}
4{0}
4{0}
4{0}
4{0}
4{0}
3{0}
3{0}
3{0}
2{0}
4{0}
3{0}
4{0}
4{0}
1(0)
3{0}
3{0}
4{0}
2{0}
2{0}
4{0}
4{0}
3{0}
2{0}
3{0}
5{0}
4{0}
3{0}
4{0}
4{0}
3{0}
2{0}
2{0}
3{0}
4{0}
3{0}
4{0}
4{0}
2{0}
2{0}
3{0}
4{0}
3{0}
2{0}
2{0}
2{0}
3{0}
4{0}
3{0}
3{0}
3{0}
5{0}
4{0}
5{0}
4{0}
3{0}
4{0}
5{0}
4{0}
5{0}
4{0}
4{0}
2{0}
5{0}
6{0}
6{0}
4{0}
3{0}
5{0}
4{0}
4{0}
3{0}
4{0}
5{0}
3{0}
4{0}
3{0}
3{0}
3{0}
3{0}
4{0}
3{0}
3{0}
1(0)
1(0)
3{0}
2{0}
3{0}
4{0}
3{0}
4{0}
3{0}
5{0}
2{0}
1(0)
3{0}
4{0}
4{0}
3{0}
1(0)
4{0}
4{0}
4{0}
3{0}
4{0}
3{0}
3{0}
4{0}
3{0}
4{0}
4{0}
3{0}
3{0}
1(0)
3{0}
4{0}
2{0}
3{0}
4{0}
4{0}
5{0}
3{0}
5{0}
5{0}
4{0}
5{0}
2{0}
4{0}
3{0}
3{0}
3{0}
2{0}
2{0}
3{0}
2{0}
5{0}
5{0}
3{0}
4{0}
3{0}
4{0}
4{0}
2{0}
4{0}
4{0}
3{0}
4{0}
4{0}
5{0}
4{0}
4{0}
4{0}
3{0}
4{0}
4{0}
2{0}
2{0}
3{0}
3{0}
3{0}
2{0}
3{0}
5{0}
3{0}
4{0}
3{0}
4{0}
2{0}
3{0}
1(0)
3{0}
5{0}
2{0}
2{0}
4{0}
4{0}
4{0}
3{0}
3{0}
3{0}
3{0}
4{0}
4{0}
1(0)
3{0}
3{0}
0()
3{0}
4{0}
3{0}
3{0}
3{0}
5{0}
4{0}
4{0}
3{0}
4{0}
2{0}
3{0}
4{0}
2{0}
4{0}
4{0}
4{0}
2{0}
3{0}
2{0}
3{0}
2{0}
3{0}
4{0}
3{0}
5{0}
4{0}
4{0}
4{0}
3{0}
5{0}
3{0}
3{0}
4{0}
4{0}
4{0}
3{0}
3{0}
4{0}
2{0}
3{0}
1(0)
3{0}
2{0}
1(0)
3{0}
3{0}
4{0}
4{0}
3{0}
5{0}
2{0}
4{0}
4{0}
4{0}
3{0}
2{0}
3{0}
4{0}
3{0}
4{0}
3{0}
4{0}
3{0}
4{0}
5{0}
4{0}
3{0}
3{0}
4{0}
4{0}
3{0}
2{0}
2{0}
5{0}
4{0}
3{0}
5{0}
3{0}
4{0}
3{0}
2{0}
3{0}
3{0}
5{0}
4{0}
4{0}
2{0}
5{0}
4{0}
3{0}
5{0}
4{0}
2{0}
3{0}
2{0}
3{0}
3{0}
4{0}
5{0}
3{0}
4{0}
2{0}
4{0}
2{0}
4{0}
4{0}
5{0}
3{0}
2{0}
2{0}
3{0}
3{0}
2{0}
3{0}
4{0}
5{0}
1(0)
3{0}
3{0}
3{0}
3{0}
2{0}
5{0}
4{0}
5{0}
4{0}
4{0}
5{0}
2{0}
3{0}
2{0}
3{0}
2{0}
2{0}
4{0}
4{0}
4{0}
3{0}
2{0}
3{0}
3{0}
4{0}
5{0}
4{0}
3{0}
4{0}
4{0}
4{0}
4{0}
3{0}
4{0}
1(0)
3{0}
4{0}
2{0}
2{0}
2{0}
3{0}
3{0}
3{0}
5{0}
4{0}
3{0}
4{0}
4{0}
4{0}
2{0}
3{0}
4{0}
1(0)
3{0}
5{0}
4{0}
4{0}
3{0}
5{0}
1(0)
3{0}
4{0}
2{0}
1(0)
1(0)
3{0}
4{0}
4{0}
4{0}
4{0}
3{0}
4{0}
3{0}
3{0}
3{0}
4{0}
2{0}
4{0}
4{0}
3{0}
2{0}
4{0}
4{0}
5{0}
4{0}
4{0}
3{0}
5{0}
4{0}
2{0}
3{0}
4{0}
2{0}
5{0}
3{0}
4{0}
3{0}
2{0}
3{0}
3{0}
3{0}
4{0}
3{0}
3{0}
3{0}
3{0}
4{0}
3{0}
4{0}
3{0}
4{0}
3{0}
3{0}
2{0}
4{0}
3{0}
3{0}
4{0}
3{0}
4{0}
4{0}
3{0}
3{0}
3{0}
4{0}
3{0}
4{0}
4{0}
4{0}
3{0}
4{0}
5{0}
3{0}
1(0)
1(0)
2{0}
1(0)
2{0}
3{0}
2{0}
4{0}
1(0)
3{0}
1(0)
3{0}
4{0}
3{0}
4{0}
3{0}
3{0}
4{0}
5{0}
4{0}
4{0}
4{0}
4{0}
3{0}
1(0)
4{0}
4{0}
4{0}
4{0}
4{0}
3{0}
3{0}
2{0}
2{0}
4{0}
2{0}
2{0}
5{0}
3{0}
3{0}
4{0}
2{0}
3{0}
3{0}
0()
4{0}
3{0}
4{0}
1(0)
4{0}
2{0}
2{0}
4{0}
2{0}
3{0}
4{0}
4{0}
4{0}
3{0}
3{0}
5{0}
3{0}
5{0}
3{0}
3{0}
2{0}
4{0}
4{0}
2{0}
1(0)
1(0)
0()
0()
2{0}
5{0}
4{0}
4{0}
3{0}
5{0}
5{0}
3{0}
2{0}
5{0}
4{0}
3{0}
4{0}
2{0}
3{0}
2{0}
2{0}
3{0}
4{0}
4{0}
3{0}
4{0}
2{0}
4{0}
3{0}
4{0}
3{0}
1(0)
4{0}
1(0)
3{0}
4{0}
4{0}
2{0}
2{0}
0()
3{0}
3{0}
4{0}
4{0}
0()
3{0}
4{0}
4{0}
2{0}
4{0}
4{0}
3{0}
4{0}
4{0}
4{0}
3{0}
3{0}
3{0}
3{0}
4{0}
2{0}
3{0}
4{0}
2{0}
3{0}
1(0)
3{0}
3{0}
3{0}
4{0}
5{0}
4{0}
4{0}
3{0}
1(0)
3{0}
2{0}
2{0}
4{0}
4{0}
3{0}
3{0}
3{0}
5{0}
4{0}
3{0}
3{0}
3{0}
3{0}
3{0}
3{0}
2{0}
4{0}
3{0}
1(0)
3{0}
2{0}
3{0}
3{0}
2{0}
3{0}
3{0}
3{0}
3{0}
2{0}
3{0}
1(0)
2{0}
4{0}
2{0}
3{0}
3{0}
3{0}
2{0}
3{0}
3{0}
3{0}
2{0}
2{0}
4{0}
3{0}
3{0}
3{0}
3{0}
3{0}
2{0}
3{0}
2{0}
4{0}
2{0}
2{0}
1(0)
4{0}
2{0}
2{0}
3{0}
3{0}
2{0}
3{0}
1(0)
2{0}
3{0}
3{0}
1(0)
1(0)
2{0}
5{0}
4{0}
4{0}
5{0}
2{0}
2{0}
4{0}
4{0}
5{0}
5{0}
3{0}
3{0}
2{0}
3{0}
5{0}
3{0}
2{0}
4{0}
2{0}
3{0}
3{0}
3{0}
3{0}
2{0}
3{0}
3{0}
4{0}
4{0}
4{0}
1(0)
2{0}
3{0}
3{0}
4{0}
4{0}
3{0}
3{0}
5{0}
6{0}
4{0}
4{0}
2{0}
4{0}
5{0}
2{0}
5{0}
2{0}
4{0}
2{0}
5{0}
4{0}
4{0}
5{0}
5{0}
3{0}
4{0}
6{0}
6{0}
5{0}
5{0}
4{0}
5{0}
4{0}
)


// ************************************************************************* //
