/*--------------------------------*- C++ -*----------------------------------*\
  =========                 |
  \\      /  F ield         | OpenFOAM: The Open Source CFD Toolbox
   \\    /   O peration     | Website:  https://openfoam.org
    \\  /    A nd           | Version:  8
     \\/     M anipulation  |
\*---------------------------------------------------------------------------*/
FoamFile
{
    version     2.0;
    format      ascii;
    class       vectorField;
    location    "0/lagrangian/kinematicCloud";
    object      f;
}
// * * * * * * * * * * * * * * * * * * * * * * * * * * * * * * * * * * * * * //


3300
(
(0.000448942 0.0014393 -2.43312e-05)
(0.000112403 0.00043685 -0.000101988)
(0.000165677 0.000614705 -0.000116986)
(-2.13212e-05 0.000754404 -2.4968e-05)
(-0.000281446 0.00106213 -0.000183628)
(-0.00287891 0.00432748 0.000516439)
(-0.000871767 0.00122771 -6.26361e-05)
(-0.00063035 0.00154278 -0.000119079)
(-0.000822981 0.0017317 5.97352e-05)
(-4.58713e-05 0.00102534 -0.000120896)
(-0.000197008 0.00122708 -0.000170034)
(0.000374423 0.00116621 1.86049e-05)
(6.09946e-06 0.00119705 -0.000275671)
(-0.00010918 0.00118366 0.000113329)
(-0.000109407 0.00105707 -7.62641e-05)
(-0.000123689 0.00144629 9.52837e-05)
(-0.000227892 0.00112763 0.000184239)
(5.79996e-05 0.000727866 -2.74863e-05)
(0.000343019 0.000797832 9.44522e-06)
(-4.50449e-05 0.00104765 0.000244873)
(8.26257e-05 0.000559941 0.000177425)
(5.78868e-05 0.000538947 -3.42137e-05)
(4.14952e-05 0.00155204 -0.000112189)
(-0.000166838 -0.000359658 0.000167425)
(-0.000330689 0.00151338 -0.00014904)
(0.000337477 0.000925284 -9.09403e-06)
(-0.0016083 0.00258313 -5.96447e-05)
(-4.15099e-05 0.000280824 6.0329e-05)
(0 0 0)
(0.000735311 0.000956471 -0.000213428)
(-0.00193118 0.00141 9.95201e-05)
(-0.000498448 0.00269066 4.34402e-05)
(-0.00213685 0.000559044 -7.87763e-05)
(0.000880353 0.00116852 1.1131e-05)
(-4.85799e-05 0.00105243 -8.00825e-05)
(-3.53646e-05 0.00104667 -9.97183e-06)
(-2.03995e-06 0.00109167 1.9424e-05)
(-1.6337e-05 0.00115323 2.58355e-05)
(2.56541e-05 0.00102846 6.19218e-06)
(1.82168e-06 0.00104383 9.53749e-06)
(1.54639e-05 0.00115194 1.4306e-05)
(-6.85282e-05 0.000950299 -2.5596e-05)
(-3.56614e-05 0.000977802 -3.86592e-05)
(-1.11633e-05 0.00100053 -2.93504e-05)
(-1.26806e-05 0.00104559 -9.86834e-05)
(4.63296e-05 0.0010092 4.33762e-05)
(-4.3096e-05 0.00104209 1.343e-05)
(-4.3941e-05 0.001206 -4.32582e-05)
(1.37783e-05 0.00112829 -2.95905e-05)
(6.2177e-05 0.00119229 2.53069e-05)
(-0.000389595 0.000923806 8.46659e-05)
(-5.61552e-05 0.00107124 9.46495e-05)
(0.000148514 0.000720203 -3.95782e-05)
(0.000130053 0.00105387 -2.79721e-06)
(0.000191392 0.00127397 -8.53178e-05)
(-4.63015e-05 0.00122517 -7.09226e-05)
(3.57107e-05 0.001055 -4.23196e-05)
(0.000306067 0.000946907 0.000226689)
(0.000381246 0.00121828 -9.51781e-06)
(0.00017966 0.00229271 -4.39299e-05)
(6.79632e-05 0.00171668 -0.000149811)
(-0.000414439 0.00131536 -5.15016e-05)
(7.62596e-05 0.00134539 2.05279e-05)
(-0.000235355 0.000709087 -8.73395e-05)
(-0.000413925 0.000806677 -6.40661e-05)
(-9.95606e-05 0.0014411 -0.00015413)
(0.000307527 0.000217101 -2.35686e-05)
(0.000462258 0.00116742 2.27656e-05)
(0.000279431 2.87367e-05 -0.000173442)
(-0.000176783 0.00141375 0.000663039)
(-9.40155e-06 0.000680447 0.000363811)
(0.00340513 -0.00114364 -0.000465896)
(-0.000858386 0.000790334 -3.62894e-05)
(0.000789642 0.00163475 -0.00018684)
(0.000959371 0.00202188 5.02467e-05)
(-0.000243909 0.00111416 3.15434e-06)
(-0.000183628 0.000521565 -8.39054e-05)
(-0.000417484 0.00105116 9.75133e-06)
(5.36827e-05 0.00148176 -0.000722283)
(6.65937e-05 0.0017476 -0.000319695)
(-0.000274484 0.00154368 2.3536e-05)
(0.000599119 0.00097357 -7.88924e-05)
(-8.94073e-05 0.000557612 -2.58151e-05)
(0.000514973 0.00115191 -8.56924e-06)
(3.51224e-05 0.000584571 0.000139377)
(-0.000115341 0.00113913 -7.65849e-05)
(0.000378865 0.00110601 -0.000304296)
(-0.000497459 0.00115984 0.000343162)
(0.00161186 -5.34205e-05 0.000150741)
(-0.00130642 0.0025573 -2.20922e-05)
(-0.00031999 0.00090866 -1.75104e-05)
(0.000173515 0.0017077 0.000405127)
(-0.00124385 0.000482745 0.000109175)
(8.26954e-06 0.000590552 -0.000581902)
(0.00201802 0.000859767 -0.000497439)
(0.00100753 0.00261251 8.50435e-05)
(0.00107245 0.00235611 9.62805e-05)
(0.000169026 0.000823943 9.24946e-06)
(0.00122559 0.00137883 -1.4093e-05)
(-0.00273827 0.00390467 2.21472e-05)
(-0.000798206 -0.00149536 -3.24329e-06)
(0.000772596 -0.00027097 2.05522e-06)
(-7.53678e-05 0.00232762 9.72287e-07)
(0 0 0)
(0 0 0)
(7.5084e-06 0.00111515 2.06132e-05)
(-1.76576e-05 0.00107185 -1.14399e-05)
(-4.17326e-05 0.00100867 -2.05907e-05)
(-4.5396e-05 0.00100982 -4.08894e-05)
(-8.34018e-07 0.000957119 -5.1313e-05)
(-4.69402e-05 0.00104656 1.68032e-05)
(1.32812e-05 0.00100766 7.75073e-06)
(-4.26226e-05 0.000930174 4.85498e-05)
(-8.51944e-06 0.000984603 4.34389e-05)
(4.72205e-05 0.00088356 -5.82342e-05)
(7.16596e-05 0.00116907 1.91718e-05)
(0.000236014 0.00126252 -5.75749e-05)
(4.17036e-05 0.000885357 -5.2658e-05)
(-6.40073e-05 0.00108091 2.61275e-05)
(-0.000286378 0.00120069 3.76764e-05)
(-0.00033089 0.00121351 -9.61425e-05)
(-8.06796e-05 0.00109081 0.000153903)
(0.000186553 0.00104249 0.000122136)
(-3.72418e-05 0.00106737 7.85037e-05)
(-6.47066e-05 0.00118955 0.000139101)
(-6.38225e-06 0.000633303 0.000128185)
(-9.23388e-05 0.00130784 -4.64304e-05)
(-0.000115365 0.00110655 7.60916e-05)
(-0.00048029 0.00122693 -8.01885e-05)
(-0.000241456 0.00108819 -0.000131147)
(0.0015698 0.00156992 0.000381878)
(-0.000412458 0.00201 -0.000236769)
(0.000218107 0.00144775 -9.11501e-05)
(-0.000443548 0.00086023 -0.000166467)
(-0.000293138 0.000778473 8.1016e-05)
(0.000658917 0.00103686 7.11384e-05)
(0.000472154 0.000275961 6.75041e-05)
(-4.59642e-05 0.00105259 -5.64299e-06)
(0.000213662 0.00134167 7.02961e-06)
(0.000240795 0.000887911 5.50784e-05)
(-0.000360119 0.00073228 -7.95004e-05)
(0.000138949 0.0011635 -0.00055066)
(-0.000222296 0.00105171 -6.995e-05)
(0.00017109 0.00156687 0.000191564)
(0.000345602 0.0017261 0.00028007)
(-0.000277329 0.00165445 1.33183e-05)
(0.000351438 0.000898229 8.75352e-05)
(-0.000807493 0.00118843 -5.41591e-05)
(0.000223999 0.00133494 1.96819e-05)
(-0.000126784 0.00132198 -1.41191e-05)
(0.0001428 0.00114289 3.68788e-05)
(-0.000432422 0.00131112 5.98912e-05)
(-3.60266e-05 0.00118979 -0.000391003)
(0.000202387 0.000904849 -0.000204179)
(3.8915e-05 0.00145652 4.75202e-05)
(0.000361949 0.00126923 -0.000109584)
(-0.000266039 0.00127242 -5.91427e-05)
(-9.77673e-05 0.000392656 -1.10019e-05)
(5.45859e-05 0.000959693 -6.67021e-05)
(0.000313232 0.00120388 -0.000326288)
(-0.000697626 0.0020897 -3.85321e-05)
(-0.000355635 0.00141934 5.88986e-05)
(3.68331e-05 0.00128455 6.03987e-05)
(0.000514483 0.00130503 -7.91376e-05)
(-0.000338007 0.00136529 -0.00045887)
(0.000210317 0.000488115 -0.000362755)
(-0.000684622 0.00129819 -0.000298793)
(-0.00159985 0.000631169 4.67152e-05)
(0.000578975 0.00158491 0.000398327)
(0.00106985 0.00192444 -0.000144742)
(-0.000731912 0.000994436 0.000447127)
(-0.000237215 0.000684077 -2.2494e-05)
(-0.00110912 0.00242908 -7.26349e-05)
(-0.000506691 0.00126492 0.000124435)
(-0.0015671 -0.000338473 1.27854e-05)
(-0.000936717 0.00137066 -1.67827e-05)
(5.3555e-06 0.00113712 2.37825e-05)
(1.52809e-05 0.00105764 6.08194e-06)
(-1.09649e-05 0.00108627 3.22893e-06)
(-5.72857e-05 0.00100008 6.98471e-05)
(-7.59074e-05 0.000989397 -4.92879e-05)
(-0.000215046 0.000954349 -0.000113491)
(-2.80047e-05 0.000968937 2.18055e-05)
(9.99413e-05 0.00100592 3.26557e-05)
(-0.000102459 0.00126835 2.02245e-05)
(0.000145722 0.000861634 -3.86864e-05)
(0.000259095 0.000445145 2.06175e-05)
(-2.98813e-05 0.00118922 -1.74019e-06)
(-7.33896e-06 0.00119124 5.23695e-05)
(0.000105423 0.00116426 0.000122012)
(-0.000181675 0.00116181 0.000100666)
(0.0001719 0.00101049 1.64804e-05)
(-0.000161404 0.000883862 -8.84649e-05)
(4.04325e-05 0.000975243 -1.43295e-05)
(1.44884e-05 0.0012344 0.000150369)
(-0.000126837 0.000971429 2.64366e-05)
(-0.000251838 0.00105602 -3.16313e-05)
(1.50133e-05 0.00106224 0.000147618)
(0.00021797 0.000756891 0.00012536)
(-8.83807e-05 0.00107662 0.000160782)
(-0.000305698 0.00124517 -6.28869e-05)
(0.000467095 0.000767369 -0.000212827)
(-0.000550086 0.000905159 -0.000220661)
(-0.000940886 0.000152216 -0.000427905)
(0.000396406 -0.000516095 -0.000132201)
(0.000332368 0.000109309 -5.51535e-05)
(0.000904298 0.000865393 -0.000251971)
(0.000325388 0.00307113 -0.000337634)
(0.000284499 0.00238599 0.000335076)
(-0.00153182 0.00226767 0.000273043)
(0.000489634 0.00499526 0.000186211)
(0.00222625 0.00134409 4.84973e-05)
(-0.000311455 0.0005799 0.000145859)
(-0.000263734 0.00116073 7.91312e-05)
(0.000524193 0.00132518 -0.00024033)
(8.01334e-05 0.0015955 1.15144e-06)
(-0.00033485 0.00152754 -0.000233415)
(1.4123e-05 0.00139186 -2.79415e-05)
(-0.000911436 0.000741403 -8.1309e-05)
(4.79921e-05 0.00103108 -4.50543e-05)
(-0.000351111 0.000894356 -3.54619e-05)
(-0.000331689 0.000716685 8.70766e-05)
(-0.000173189 0.000987704 9.4191e-05)
(0.000556442 0.000934358 4.48904e-05)
(-0.000157615 0.00188635 0.000179599)
(5.16044e-05 0.00163042 5.61061e-05)
(0.000106872 0.00150632 0.000388241)
(-0.000159449 0.0012662 -2.0836e-05)
(4.49204e-05 0.00111516 -0.000112268)
(0.000126635 0.000729999 -0.000117019)
(-0.000423125 0.00144723 -0.000214707)
(-0.000112795 0.00122349 -2.12864e-05)
(0.00058456 0.000578504 0.000108168)
(0.000716832 0.000520487 0.000255579)
(-0.000760642 0.000819358 -3.10635e-05)
(3.48257e-05 0.00102925 -9.15639e-05)
(-0.000240948 0.00106311 0.00031453)
(-0.00213568 0.00108837 0.000499068)
(-0.000338558 0.00014336 -4.47641e-05)
(0.000628147 0.00157757 0.00068068)
(-0.00014218 0.00262941 0.000952938)
(0.000376238 0.00383155 0.00050395)
(0.00314689 0.00119453 1.12524e-06)
(0.000235913 0.00516575 0.000118712)
(0.000840182 -0.001093 -3.80988e-05)
(-0.00065552 -0.00123791 -3.40389e-05)
(0 0 0)
(4.02783e-06 0.00108139 6.07955e-06)
(-7.05744e-05 0.00103941 1.33249e-05)
(8.66467e-05 0.00102241 -7.16763e-05)
(0.000138574 0.00100128 -3.06281e-07)
(5.72747e-05 0.00108238 -3.30959e-05)
(-2.46171e-05 0.00080518 -0.000113748)
(0.000143569 0.000802342 5.0582e-05)
(-8.52881e-05 0.00106262 1.05085e-05)
(-7.82936e-05 0.00109966 1.4861e-05)
(0.0001397 0.000989811 -7.46577e-05)
(-0.000170675 0.00109083 -2.06247e-05)
(2.20728e-06 0.00105763 -5.47049e-05)
(0.000160871 0.00138945 0.000164218)
(-2.06047e-05 0.00138289 0.000178487)
(6.04683e-05 0.00126048 3.0456e-05)
(2.2386e-05 0.000994311 6.93443e-06)
(5.37184e-05 0.00112516 -3.93544e-05)
(-3.17101e-05 0.000281255 2.02115e-05)
(7.42958e-07 0.000873966 3.08503e-05)
(0.000728962 0.0012953 -3.94091e-05)
(8.88952e-06 0.00140052 2.89305e-05)
(-3.00828e-05 0.00128878 2.29768e-05)
(-5.72601e-05 0.00115487 -3.98323e-05)
(-0.000359317 0.00116691 -6.03728e-05)
(-0.000266398 0.00130014 0.000170231)
(-0.000470768 0.00251834 0.000164064)
(0.000658422 0.000244811 -0.000150234)
(-0.000427921 6.76579e-05 -1.12672e-05)
(-0.000841248 0.000667076 -0.000189237)
(-0.000572401 0.000866854 7.57919e-05)
(-0.00427592 0.0026942 3.63322e-05)
(0.00393124 -0.00116752 -0.000106758)
(8.60752e-05 0.00185557 6.61972e-05)
(-0.00136507 0.00269224 -1.22586e-05)
(0.000418345 0.000517811 -0.000141297)
(1.04159e-05 0.000839976 -4.0345e-05)
(-0.000253535 0.00119015 1.48292e-05)
(-0.000562528 0.000693368 -4.09895e-05)
(0.0002079 0.000332967 -2.65198e-05)
(7.94646e-05 0.000921672 -0.000104125)
(-4.01337e-05 0.00135567 -4.6731e-05)
(-0.000425531 0.000978125 -0.000284202)
(-0.000218238 0.000894088 -0.00016178)
(-0.00012018 0.000932332 -0.000108658)
(-0.000267045 0.001006 2.12467e-05)
(0.000412544 0.00148703 0.000278752)
(0.000188792 0.000927338 0.000265101)
(0.000294669 0.00123714 0.000354283)
(-0.000249029 0.0015626 0.00017335)
(-1.60214e-05 0.00182734 -0.000301895)
(0.000142939 0.00111992 0.000141487)
(-0.000555022 0.000983621 -0.000122117)
(-0.000149839 0.000781996 -7.38745e-05)
(-0.000274775 0.000922449 -3.5455e-05)
(-0.000491013 0.000772063 -7.48458e-05)
(0.000628742 0.000672322 4.20486e-07)
(2.85032e-05 0.000448233 7.22733e-05)
(-0.000123006 0.000768231 -2.93415e-05)
(0.000825316 0.00133115 -0.000179279)
(0.000133242 0.00162501 0.000421229)
(-0.000726554 0.000215216 0.00079654)
(-3.87583e-05 4.51469e-05 -0.000165253)
(0.000577817 9.69221e-05 7.65849e-05)
(-0.000150145 -0.000204149 -8.83819e-05)
(0.00232036 0.00163066 0.000264632)
(-0.00189303 -0.00176254 0.000425374)
(-0.000784967 0.000644513 -9.55618e-05)
(0.00079942 0.00291324 2.32568e-05)
(-9.44887e-05 0.000392908 -7.33682e-06)
(0.000846532 0.00185594 1.57072e-05)
(0 0 0)
(0.000497315 0.000904776 -2.46969e-05)
(-0.000404447 0.000642056 -3.04108e-05)
(-2.67068e-05 0.00108116 -2.14268e-05)
(2.82137e-05 0.00102791 -1.4103e-05)
(5.05092e-05 0.00101324 -7.5552e-05)
(8.37447e-06 0.00105563 -7.21287e-05)
(0.000340779 0.00116096 1.38234e-05)
(9.48623e-05 0.00110027 6.44167e-05)
(4.86851e-05 0.00104131 7.47001e-05)
(-3.58458e-05 0.00111469 0.000131717)
(-0.000152702 0.00089921 0.000164719)
(-9.31281e-05 0.0010156 -2.73371e-05)
(9.03165e-05 0.00101302 -0.00014586)
(7.26682e-06 0.00106665 -4.7573e-07)
(0.000160257 0.00115249 -7.02052e-05)
(0.000266491 0.00123022 -0.000317575)
(-8.04742e-05 0.00133568 -0.00024175)
(-0.000140966 0.00165297 -7.96059e-06)
(-0.000430684 0.00147578 4.02278e-05)
(0.000106002 0.000966278 -5.83008e-05)
(9.11622e-05 0.00140144 -7.25057e-05)
(4.27627e-05 0.00155102 -4.79212e-05)
(0.000323406 0.000870048 -6.89209e-05)
(7.86104e-05 0.00099438 -9.82583e-05)
(-0.000330493 0.00122529 -0.000152711)
(0.000180815 0.00140275 0.000171415)
(-0.00111147 0.00207171 -2.1751e-06)
(0.00022177 0.000721315 8.0862e-06)
(-0.000274388 0.000602898 3.96437e-05)
(-2.66602e-05 0.000753337 1.62684e-05)
(0.000222416 0.00151692 8.02384e-05)
(0.000257485 0.00022637 0.000109383)
(0.000125343 0.00103552 0.000162212)
(0.000140652 0.000725983 1.61895e-05)
(-0.000300351 0.00122106 -6.18373e-05)
(-0.000427414 0.00115466 -0.000328434)
(0.000243241 0.00111706 -0.000279514)
(-0.000192449 0.0010442 1.22496e-06)
(4.71107e-06 0.00133946 0.000255589)
(-0.000512741 0.00102987 -0.000125753)
(0.000423765 0.000854111 0.000116959)
(0.000270995 0.000921547 1.6006e-05)
(-5.27349e-05 0.00124972 -0.000105508)
(-0.000357895 0.00141837 8.54569e-05)
(0.000210421 0.00161267 7.48223e-05)
(-0.000533372 0.000801575 0.000107265)
(-0.000266223 0.00121967 3.3595e-05)
(0.000102994 0.000890944 -6.53305e-05)
(-5.595e-05 0.00124185 -1.94646e-05)
(0.00049837 0.00144957 -3.66254e-06)
(0.000403357 0.00113508 -2.09065e-05)
(-0.000174374 0.000852589 -9.15277e-05)
(-0.000507875 0.00104598 -0.000159154)
(-0.00048275 0.000790036 -3.28467e-05)
(-0.000523947 0.000610223 -5.54803e-05)
(-0.000244764 0.000533184 -0.00016969)
(-0.000509762 0.000671027 8.21711e-05)
(-0.000283447 0.00152704 -0.000163783)
(-0.000290543 0.00130596 0.000267659)
(-0.000549272 -0.000578572 3.21709e-05)
(0.000506507 -6.19153e-05 -0.000292029)
(0.000462113 0.00138751 -0.000584342)
(0.000508587 0.000949055 -0.00138016)
(0.000742892 0.00147704 -7.15518e-06)
(0.00077191 0.00215887 -0.000172268)
(-0.000716478 0.00202986 -5.54593e-05)
(-0.00212286 -0.000599488 0.000177724)
(0.000519929 0.00209427 5.12933e-06)
(0.00043195 0.000137936 -4.58656e-06)
(-0.000890059 0.000932078 9.10526e-06)
(0 0 0)
(0.000161432 0.00109795 1.55534e-06)
(-4.31743e-05 0.00109579 -5.70693e-06)
(0.000102678 0.00110383 -0.000105374)
(0.000291079 0.00105182 3.34051e-05)
(-3.25903e-05 0.000889282 -1.32046e-05)
(9.65524e-05 0.0010103 2.62749e-05)
(0.000158521 0.0010436 -4.8165e-05)
(6.18239e-05 0.00103604 -2.82036e-05)
(5.6587e-05 0.000983157 -2.02917e-05)
(4.37952e-05 0.00118063 4.55196e-05)
(-2.74646e-05 0.00108329 3.77182e-05)
(-7.04923e-06 0.000956678 -4.92867e-05)
(3.44092e-05 0.000992322 0.000119836)
(-6.10203e-05 0.000983316 -0.000137598)
(-1.25394e-05 0.000957012 -3.57338e-05)
(-7.26525e-05 0.00112243 -0.000284803)
(-0.000187346 0.00134576 -0.000206919)
(-0.000148598 0.000933509 -2.64709e-06)
(-0.000228203 0.000916477 1.82888e-05)
(-0.000145114 0.00160442 5.8739e-05)
(-8.6148e-05 0.00107679 -8.26121e-05)
(4.94416e-05 0.000753043 5.7494e-06)
(0.000286241 0.00127497 -8.47781e-05)
(0.000314168 0.000840909 5.13429e-05)
(0.000120884 0.00091961 0.000109641)
(-8.33463e-05 0.000893559 0.000103767)
(0.000184678 0.000765358 0.000219033)
(6.7959e-05 0.00100223 0.000137647)
(8.07455e-05 0.00105567 0.000139322)
(-3.75176e-05 0.000604647 9.95233e-05)
(0.000165867 0.000988669 6.49298e-05)
(-0.00052743 0.000766107 7.20337e-05)
(-0.00037944 0.000810854 4.47907e-05)
(0.000295133 0.00144815 -9.64125e-07)
(-0.00067382 0.00154653 -0.00038325)
(-0.000483048 0.000956873 -0.000154827)
(0.00012057 0.0013258 -9.07844e-05)
(0.000231907 0.0014182 7.89003e-05)
(0.000131376 0.000982366 9.73144e-05)
(1.52323e-05 0.00117721 1.5417e-05)
(0.000342277 0.000816769 0.000201567)
(0.000152606 0.000955651 4.30633e-05)
(0.000118514 0.000954852 -0.000147451)
(0.000246536 0.000931077 -5.12239e-06)
(4.95416e-05 0.000853664 6.09021e-05)
(-0.000475022 0.00127394 0.000135016)
(4.57523e-06 0.00114109 0.00010114)
(-0.000127622 0.00124014 8.87315e-05)
(9.99955e-05 0.00131161 -0.000132663)
(0.000478349 0.00132129 5.14194e-05)
(0.000253641 0.00152567 3.76593e-05)
(0.000191107 0.00129542 1.97641e-05)
(-0.000479044 0.00109775 2.52144e-05)
(-0.000423497 0.000876926 5.45168e-06)
(-1.8535e-05 0.000684178 -0.000147368)
(7.58894e-05 0.00192121 -0.000242476)
(-0.000171362 0.00224233 0.000215213)
(-7.68751e-05 0.00205323 -4.92061e-05)
(0.000440338 0.000886254 -0.000755733)
(0.00217592 0.00334435 -0.00032115)
(0.00221904 0.0034022 -0.000875792)
(-0.000396925 0.000352721 -0.000169644)
(-0.000411491 0.00132148 -0.000418888)
(-0.000539622 0.000835085 -0.000391948)
(-0.00154061 0.00118579 0.000488848)
(-0.00127321 -0.000157754 0.000209635)
(0.000865377 0.00151327 -0.000133792)
(-0.000669132 -0.00158713 1.5187e-05)
(0.000105887 0.00345214 9.13034e-06)
(-0.000251691 -0.000328673 -9.59043e-07)
(9.83116e-06 6.46464e-05 -6.13401e-09)
(-6.92924e-05 0.00107166 -3.06128e-06)
(0.000145383 0.00114027 1.99848e-05)
(-3.81822e-05 0.00113239 0.000212372)
(-0.000273046 0.00121197 1.00479e-05)
(3.18797e-05 0.00131722 -5.56389e-06)
(1.48101e-05 0.000913953 9.72965e-06)
(6.57757e-05 0.00107485 6.34477e-06)
(-3.32213e-05 0.00108474 -2.50461e-05)
(-3.45598e-05 0.00102938 -4.86328e-05)
(-2.77461e-05 0.00102624 9.59374e-05)
(4.97541e-05 0.00103882 8.95732e-05)
(4.04317e-05 0.00102929 -8.89951e-05)
(-5.15284e-07 0.00106575 -2.97296e-05)
(-1.55067e-05 0.00102471 -1.9381e-05)
(6.0913e-05 0.00105272 2.94018e-05)
(-0.000344052 0.00139002 0.000112187)
(-0.000216601 0.000949929 -6.18741e-05)
(4.96656e-05 0.000918021 5.37497e-06)
(0.000158257 0.000818644 6.40869e-05)
(-0.000169739 0.00105393 -2.7156e-05)
(-0.000141071 0.00120621 1.58781e-05)
(-8.54467e-05 0.0010482 7.31443e-05)
(-0.00021505 0.000581444 4.79423e-05)
(0.000203099 0.0010913 -2.051e-05)
(0.000186175 0.00105705 1.85823e-05)
(5.69121e-05 0.0011574 6.24361e-05)
(5.29642e-05 0.00102651 2.47134e-05)
(8.72789e-05 0.00126158 -4.02919e-05)
(1.62654e-05 0.00106056 8.17705e-05)
(0.000177254 0.0011182 9.56006e-05)
(-0.000306563 0.000946885 -2.5861e-05)
(0.000129475 0.00157514 2.49846e-05)
(-0.000436856 0.0014402 -3.63901e-05)
(0.00025993 0.00139186 -9.91719e-05)
(8.02241e-06 0.00116957 -9.30372e-05)
(5.38044e-05 0.00115058 7.86765e-05)
(0.000250016 0.00148808 3.84054e-05)
(-0.000282479 0.00123702 -2.46389e-05)
(0.000362927 0.00117609 1.77149e-06)
(0.000319248 0.00104835 8.61879e-05)
(0.000373248 0.000954249 -0.000183443)
(0.000155802 0.000967908 1.02694e-05)
(-6.35018e-05 0.00114768 7.58231e-05)
(8.50254e-05 0.00166566 -6.31334e-05)
(0.000120364 0.00134926 8.31793e-06)
(0.00012914 0.00133311 -7.04893e-05)
(-0.000296596 0.000899237 3.80971e-05)
(-0.000522032 0.000892476 0.000130872)
(-0.000298936 0.000811017 0.000119029)
(-1.58694e-05 0.000921445 9.78585e-06)
(0.000237008 0.000919308 9.51592e-06)
(0.000610782 0.000885134 6.47743e-05)
(-0.000263716 0.00101151 8.89393e-05)
(4.19847e-05 0.00119603 -5.17416e-05)
(-0.000512926 0.00152952 -1.46151e-05)
(0.000221162 0.00212923 -0.000141542)
(-0.000187266 0.00214598 -6.28985e-05)
(-0.000430477 0.00131348 0.000169296)
(-0.000448892 0.00142434 -0.000171984)
(5.34582e-06 0.00132762 -7.29292e-05)
(-0.000389562 0.00154893 3.68715e-05)
(-0.000612755 0.00141601 6.22479e-05)
(-0.000488402 0.00138118 0.000186628)
(0.000555855 0.000864191 0.000214118)
(-0.000681503 0.000121355 0.000772775)
(0.000846122 -0.00130307 0.000287744)
(0.000401475 0.00273101 -8.00765e-05)
(-0.000325146 0.000980446 -4.59603e-06)
(-0.000225554 0.000219234 6.56684e-05)
(0.00122913 0.00288538 3.15139e-05)
(0.000316698 0.000755459 -2.64721e-08)
(8.78051e-05 0.00110226 3.19768e-05)
(0.000196934 0.00114075 3.56561e-05)
(2.12475e-05 0.00118514 -5.35737e-05)
(-0.00022572 0.00106981 5.798e-05)
(-0.00013968 0.00107463 3.85149e-05)
(-4.93798e-06 0.00117004 -8.95509e-05)
(6.51483e-05 0.00112908 0.000104822)
(8.3552e-06 0.0010571 -1.08138e-05)
(-3.50183e-05 0.0010244 -1.52605e-05)
(1.02667e-05 0.000962959 6.89246e-05)
(-2.81617e-05 0.00095215 4.92651e-05)
(-5.57251e-05 0.00104792 -2.50772e-05)
(-1.36965e-05 0.00108728 -6.86372e-05)
(-4.58247e-05 0.00106067 -8.20272e-05)
(-0.000115886 0.00108821 5.23982e-05)
(5.86592e-06 0.00101836 0.000142468)
(6.07405e-05 0.00110163 0.000106985)
(5.70109e-05 0.0010301 7.17334e-06)
(-0.000218129 0.00112094 -8.77388e-05)
(-0.000182042 0.00114885 0.00012)
(2.58451e-05 0.00105966 -0.000123991)
(-0.000144842 0.00118048 2.8266e-05)
(-0.000301951 0.000558345 3.65484e-05)
(7.52356e-05 0.00125612 8.51027e-05)
(9.54182e-05 0.00135116 -0.000165302)
(-0.000283441 0.00132051 3.21538e-05)
(-1.71117e-06 0.000871644 -6.28744e-06)
(0.00035904 0.00099546 -5.67512e-05)
(0.000178284 0.000912071 -1.0698e-05)
(1.98523e-05 0.00137465 -0.00014641)
(-0.00014558 0.00139744 -6.82592e-05)
(-0.000358717 0.00129649 -0.000155104)
(5.47245e-05 0.00163671 -3.37811e-05)
(-0.000212246 0.000875068 -6.26968e-05)
(3.01397e-06 0.00146379 -0.000177798)
(-0.00069038 0.00146903 -0.000185622)
(-0.000355486 0.000999683 -6.31546e-05)
(-4.38748e-05 0.00155989 -1.22581e-05)
(-4.23701e-05 0.001308 0.000185312)
(0.000190659 0.000981456 -3.8442e-05)
(0.000153288 0.000998074 -0.000238865)
(0.000115589 0.000943007 4.88786e-05)
(-1.62831e-05 0.001063 4.56664e-05)
(-0.000399041 0.00106946 5.27748e-05)
(-0.000348387 0.00135482 5.48419e-05)
(4.51176e-05 0.00125697 8.61335e-05)
(0.000317036 2.76931e-05 -5.25849e-05)
(-0.00021638 0.000821801 -0.000154001)
(-0.000266129 0.00146416 -7.68602e-06)
(-0.000304848 0.000968447 -1.06128e-05)
(-0.000180897 0.0012734 0.000183265)
(-0.000211665 0.00130714 7.80411e-06)
(-0.000412818 0.0011956 3.1789e-06)
(-0.000394171 0.00120541 6.29484e-05)
(-0.000174256 0.00119215 2.40861e-05)
(-0.000263145 0.00120158 -7.94156e-05)
(0.000483569 0.000997396 -0.000123411)
(7.43512e-05 0.00146843 3.79389e-05)
(0.000507227 0.0011217 -9.50289e-05)
(-0.000264314 0.000674455 -0.000305314)
(0.000233643 0.00109223 -0.000389742)
(0.000704881 0.00219495 8.27005e-06)
(-0.000837902 0.0016545 0.000120684)
(0.000351408 0.00105921 -0.000190978)
(-0.00035411 0.000659906 -8.19826e-06)
(-0.000671006 0.00140911 0.000530474)
(5.60125e-05 -0.000266154 -0.00032816)
(-0.000412429 0.00143825 -9.90752e-05)
(-0.00130779 0.000522815 0.000205592)
(0.000650061 0.000304239 -8.85688e-05)
(0.000214859 0.00332128 -2.12107e-05)
(4.56497e-05 0.00105886 -3.60918e-05)
(0.000267556 0.00104064 1.24788e-06)
(-5.09932e-05 0.00101472 6.63242e-07)
(0.000232921 0.00117184 -3.65299e-05)
(-8.75688e-05 0.00112977 5.02205e-05)
(-0.000281085 0.00138477 -9.10219e-05)
(0.000117427 0.0010915 1.54584e-05)
(5.25519e-05 0.00108784 -7.53583e-05)
(-1.41418e-05 0.00113719 -3.72343e-05)
(3.80974e-05 0.000951934 6.48718e-05)
(-1.90769e-05 0.000982517 1.50957e-05)
(4.68168e-05 0.00105469 1.3559e-05)
(2.4206e-06 0.00118761 -2.49943e-05)
(3.03437e-05 0.00101761 0.000103534)
(4.42164e-05 0.00094951 0.000127982)
(-5.05611e-06 0.00104256 8.67938e-05)
(-2.15371e-05 0.00103866 -1.97324e-06)
(5.4199e-05 0.00117376 -8.95335e-05)
(-0.000110406 0.00115715 -7.28897e-05)
(-9.01892e-06 0.000920995 -8.64872e-05)
(4.78731e-05 0.00113233 -3.95826e-05)
(-0.000175396 0.00102167 -2.68289e-06)
(0.000141951 0.000933335 0.000220036)
(0.000238069 0.000854542 2.64238e-05)
(0.000112841 0.000910387 -0.000318801)
(-0.000283575 0.000863081 7.8984e-05)
(0.000411187 0.000997617 -6.16231e-05)
(0.000375503 0.00105893 0.000281406)
(0.000125939 0.00111763 0.00037989)
(-1.29318e-05 0.000728147 -6.1407e-06)
(-0.000675008 0.000482417 3.9498e-05)
(-0.000703081 0.00149287 5.58145e-05)
(0.000159681 0.000925791 -6.22769e-05)
(-0.000123023 0.00112365 5.80218e-05)
(0.000158546 0.00129609 -3.48372e-05)
(-0.00020885 0.000977945 -7.12573e-05)
(-0.000504709 0.0011679 8.49667e-05)
(-8.72201e-06 0.00107222 1.3314e-05)
(0.000388302 0.00141686 1.01649e-05)
(0.000369757 0.0012483 -5.94807e-05)
(0.000372959 0.00104361 1.49934e-05)
(-6.21399e-05 0.000834601 4.11858e-05)
(-0.000228753 0.000854025 1.0989e-05)
(8.69174e-05 0.000862971 -0.000187079)
(-0.000167511 0.000807896 -3.15973e-05)
(-4.86406e-05 0.00063472 -0.000114445)
(-4.70979e-05 0.000758962 -3.90035e-05)
(0.000445966 0.000981354 -3.80875e-05)
(0.00014211 0.00133522 -3.96036e-05)
(0.000154266 0.00140613 -5.38334e-05)
(1.15181e-05 0.00143006 -6.58126e-05)
(-0.000197266 0.00159368 -0.000221354)
(-0.000248501 0.00144222 0.00013319)
(-1.62544e-05 0.000862915 5.30432e-05)
(0.000215779 0.000434134 5.3942e-05)
(-0.000488562 0.000570356 8.73384e-05)
(-0.00011029 0.000722802 1.521e-05)
(-0.000965098 0.000282087 -0.000195901)
(-0.000310301 -0.000579245 -0.000118105)
(0.000405097 0.000948658 -4.63669e-05)
(-0.000340286 0.00183993 -0.000290011)
(-0.000272604 0.00158877 -7.27457e-06)
(0.000796412 0.00143915 -7.55157e-06)
(-0.00128608 0.000224773 -4.9075e-05)
(0.000351143 0.000731267 -0.000289781)
(-0.000189397 0.000876253 -8.18335e-05)
(-0.000379117 0.00126567 -0.000233624)
(-3.77124e-05 0.000786797 2.94926e-05)
(6.44764e-05 0.000655015 -0.000272333)
(-0.000413935 0.00220652 5.44985e-05)
(0.000525159 0.0021735 -3.77401e-05)
(-0.00010128 0.00110472 1.67592e-05)
(0.000638386 0.00130257 -0.000126646)
(-0.000118846 0.0011005 -0.000106717)
(-3.63759e-05 0.000958203 6.95177e-06)
(0.00022935 0.00116137 0.000231805)
(0.000151931 0.00108249 -2.26239e-06)
(2.57588e-05 0.00108745 3.16853e-05)
(-2.31956e-05 0.00103856 5.66258e-05)
(-4.24062e-05 0.000956661 5.09635e-05)
(-4.29399e-05 0.00101941 3.86826e-05)
(1.10379e-05 0.00117189 2.09428e-05)
(3.67734e-05 0.001096 -6.01902e-06)
(5.45964e-05 0.00112334 4.71447e-05)
(2.64408e-06 0.00112616 1.29161e-06)
(1.10138e-05 0.001154 -0.000110582)
(9.17673e-05 0.000978045 -0.000207134)
(2.67374e-05 0.00101913 -2.4105e-05)
(4.53475e-06 0.000926612 -3.00513e-05)
(-0.000237318 0.00108964 7.78987e-06)
(7.52908e-05 0.000999608 9.34834e-05)
(-3.75186e-05 0.00107104 -5.73147e-05)
(-0.000206622 0.000941518 -1.76498e-05)
(7.62439e-05 0.00119403 -5.57013e-05)
(4.45618e-05 0.00108629 0.000217625)
(6.07786e-05 0.00101169 1.2469e-06)
(0.000510669 0.0015793 8.15141e-05)
(-0.00031736 0.00152916 9.18709e-05)
(-0.00019049 0.00108719 -9.45177e-05)
(-7.57317e-05 0.00126121 4.89395e-05)
(-0.000366313 0.00133066 -1.10609e-05)
(-0.000227877 0.000906721 6.12675e-05)
(9.5623e-06 0.00106985 -9.3439e-05)
(-8.8975e-05 0.00099556 1.23226e-05)
(-5.9932e-05 0.000727173 -3.07205e-05)
(-3.54594e-06 0.0010033 6.44416e-05)
(0.000290558 0.00110326 -8.24024e-05)
(0.000113837 0.00115675 0.000136831)
(-0.000546939 0.000996073 -7.03173e-05)
(0.000202861 0.00108192 4.03641e-06)
(-0.000204538 0.000798005 -6.57759e-05)
(-8.51023e-06 0.000886156 -3.84105e-05)
(-4.32298e-05 0.00105807 1.07708e-05)
(-0.000424476 0.00102082 7.73165e-06)
(-0.000178483 0.000690469 0.000188535)
(-0.000196544 0.000791696 4.97703e-05)
(9.64447e-05 0.00129188 -0.000150849)
(0.000215831 0.00155286 2.2411e-05)
(9.79207e-05 0.00147897 -2.15894e-05)
(5.69308e-05 0.00103345 -0.000148591)
(-8.0368e-05 0.00121511 7.86562e-06)
(0.000698137 0.0010326 -9.74553e-05)
(-0.0003745 0.000696769 -3.88392e-05)
(0.000182906 0.00125133 8.31227e-05)
(-0.000494341 0.000837348 6.03943e-05)
(-0.000652559 0.00173219 2.18852e-05)
(0.000104851 0.00235207 0.000103417)
(0.00113884 0.000777934 -5.39127e-05)
(-0.000257313 0.000694487 -0.000128596)
(0.000746405 0.000825937 -6.93331e-05)
(0.000168762 0.00106143 3.51975e-05)
(-0.000605208 0.00218726 1.67423e-05)
(0.000256135 0.000457737 -1.23834e-05)
(0.000713622 0.000353175 4.71668e-05)
(-0.000756422 0.000658731 -5.61466e-05)
(-0.000292484 0.00149646 0.000145396)
(-0.000966472 0.000352644 0.000156818)
(-0.000766805 0.00120352 0.00014701)
(-0.000607225 0.00210811 -6.63089e-05)
(0.000353686 0.000703379 -0.000503045)
(1.41099e-05 0.000835712 -0.000255199)
(0.000136429 0.000787901 2.14202e-05)
(0.000393311 0.00168392 -0.000184558)
(0.000422793 0.000934135 -0.000448111)
(0.000241534 0.00100106 -2.13474e-05)
(-0.000598074 0.00115838 0.000160024)
(0.000153559 0.0014637 7.54463e-05)
(0.00019697 0.00150762 -0.000171731)
(-0.000174828 0.00106667 -1.00772e-05)
(0.000288952 0.000848511 -9.22415e-05)
(-4.05781e-05 0.00143454 -0.000240698)
(-0.000223872 0.00145187 -0.00023257)
(-0.000684357 0.00123013 -0.000118735)
(-0.00139197 0.000964168 0.00015226)
(-0.00071796 0.000977479 0.00024712)
(0.000911851 0.00186357 0.000109049)
(-7.34238e-05 0.00102513 -0.000150756)
(-0.000905116 0.00105144 0.000123693)
(-0.000446422 0.00110979 5.87299e-05)
(0.000241961 0.000910718 -3.10829e-05)
(0.000640581 0.0011204 -1.41189e-05)
(0.000306274 0.00112249 -3.91039e-05)
(0.000415497 0.00118281 0.000193396)
(-6.29301e-05 0.000194311 4.11072e-05)
(5.50304e-07 -8.87232e-05 -7.05759e-05)
(0.000822831 0.000871414 -6.27028e-05)
(-0.000786095 0.00187502 -0.000112279)
(0.000211366 0.000726133 9.00775e-05)
(0.000194724 0.000685816 -0.000198115)
(-0.000171517 0.000604955 -7.79821e-05)
(6.69695e-06 0.00152155 0.000224839)
(-6.10671e-06 0.00152553 3.95555e-05)
(0.000128208 0.0015296 -3.40102e-05)
(0.000120652 0.000691642 7.59589e-05)
(0.000217495 0.00165098 7.79166e-05)