/*--------------------------------*- C++ -*----------------------------------*\
  =========                 |
  \\      /  F ield         | OpenFOAM: The Open Source CFD Toolbox
   \\    /   O peration     | Website:  https://openfoam.org
    \\  /    A nd           | Version:  8
     \\/     M anipulation  |
\*---------------------------------------------------------------------------*/
FoamFile
{
    version     2.0;
    format      ascii;
    class       Cloud<passiveParticle>;
    location    "0/lagrangian/kinematicCloud";
    object      positions;
}
// * * * * * * * * * * * * * * * * * * * * * * * * * * * * * * * * * * * * * //

3300
(
(0.700867 0.0146353 0.137514 0.146983) 384 3000 2
(0.479946 0.252076 0.0808496 0.187129) 408 3001 1
(0.416673 0.275514 0.0316005 0.276213) 432 824 1
(0.31117 0.36055 0.0305495 0.29773) 432 871 1
(0.479989 0.243878 0.0354656 0.240667) 456 3003 1
(0.311806 0.359549 0.233158 0.0954865) 480 918 1
(0.174326 0.396689 0.276248 0.152737) 480 965 1
(0.479906 0.136549 0.276184 0.10736) 504 3005 2
(0.498861 0.234455 0.182029 0.0846552) 528 3006 1
(0.0866939 0.472439 0.231553 0.209314) 552 1059 1
(0.479974 0.00788048 0.243873 0.268273) 552 3007 2
(0.479822 0.243941 0.0537386 0.222498) 576 3008 1
(0.480244 0.0845066 0.243725 0.191524) 576 1153 2
(0.345532 0.343371 0.0704238 0.240673) 600 1153 1
(0.233724 0.367313 0.275898 0.123065) 600 1200 1
(0.22134 0.194815 0.178372 0.405473) 624 1200 2
(0.378189 0.198849 0.327047 0.0959157) 624 1247 2
(0.479901 0.276185 0.224766 0.0191477) 648 3011 1
(0.0611775 0.453272 0.276162 0.209388) 648 1294 1
(0.479977 0.0798003 0.27614 0.164083) 672 3012 2
(0.479918 0.262362 0.0787704 0.178949) 696 3013 1
(0.259116 0.386578 0.110431 0.243875) 720 1388 1
(0.320191 0.323768 0.276155 0.0798858) 720 1435 1
(0.0181345 0.284791 0.190361 0.506713) 744 1435 2
(0.479998 0.209724 0.243891 0.0663872) 744 3015 2
(0.518397 0.256917 0.0157834 0.208903) 768 1482 1
(0.303831 0.292271 0.35972 0.0441785) 768 1529 2
(0.545748 0.229922 0.0749994 0.149331) 792 3017 1
(0.290581 0.361787 0.312548 0.0350844) 792 1575 2
(0.353715 0.324973 0.0630513 0.258261) 816 1576 1
(0.278948 0.344413 0.145375 0.231263) 816 1623 1
(0.480014 0.215759 0.253248 0.0509795) 840 3019 2
(0.480025 0.243876 0.261273 0.0148257) 864 3020 1
(0.068833 0.449653 0.275948 0.205565) 864 1717 1
(0.962782 0.00244281 0.0096741 0.0251007) 1368 2 2
(0.33542 0.343386 0.316124 0.00506995) 1368 2 1
(0.35225 0.340013 0.0977761 0.209961) 0 2 2
(0.229054 0.369331 0.266566 0.13505) 0 1 1
(0.460827 0.0914283 0.167077 0.280668) 24 1 2
(0.47989 0.16443 0.243913 0.111767) 24 2985 2
(0.494338 0.23689 0.210012 0.0587597) 48 2986 1
(0.64421 0.0280833 0.165994 0.161713) 48 118 1
(0.699919 0.133868 0.00862942 0.157583) 72 165 2
(0.479602 0.033719 0.261 0.225679) 72 2987 2
(0.30526 0.223704 0.139832 0.331204) 96 166 2
(0.283849 0.17688 0.341923 0.197348) 96 213 2
(0.479771 0.181089 0.2522 0.0869401) 96 2988 2
(0.479852 0.243921 0.226719 0.0495082) 120 2989 1
(0.000322221 0.483701 0.239816 0.276161) 144 260 1
(0.480001 0.049455 0.243869 0.226675) 144 2990 2
(0.768625 0.0995629 0.128106 0.00370629) 168 2991 1
(0.132364 0.43072 0.173708 0.263209) 192 354 1
(0.165422 0.404181 0.157222 0.273176) 216 401 1
(0.123799 0.218722 0.235533 0.421945) 216 401 2
(0.465773 0.104137 0.283281 0.146809) 216 448 2
(0.203677 0.414317 0.13811 0.243896) 240 448 1
(0.374996 0.328646 0.243916 0.052442) 240 495 1
(0.360268 0.0875776 0.217657 0.334497) 264 495 2
(0.502192 0.226315 0.265046 0.00644808) 264 2995 2
(0.465329 0.283477 0.00729508 0.243899) 288 542 1
(0.151603 0.408058 0.166859 0.27348) 288 589 1
(0.741121 0.144316 0.0786649 0.035898) 312 636 1
(0.479779 0.276262 0.187932 0.0560273) 336 2998 1
(0.0124381 0.477633 0.233756 0.276173) 360 683 1
(0.798342 0.0904497 0.0755388 0.0356699) 360 729 2
(0.113184 0.434139 0.26928 0.183397) 360 730 1
(0.299165 0.168744 0.197085 0.335006) 408 777 2
(0.328118 0.322878 0.0986854 0.250318) 409 823 2
(0.281215 0.201675 0.343243 0.173868) 408 824 2
(0.13703 0.148186 0.299453 0.41533) 432 870 1
(0.550927 0.210929 0.154786 0.0833579) 456 917 2
(0.217132 0.0237133 0.351573 0.407581) 480 918 2
(0.440497 0.0687958 0.263595 0.227112) 480 965 2
(0.577828 0.220613 0.00661063 0.194948) 504 1011 1
(0.373188 0.00673292 0.291709 0.328369) 528 1012 2
(0.218308 0.147146 0.375057 0.259488) 528 1059 2
(0.583004 0.109136 0.0834645 0.224396) 552 1105 1
(0.0626936 0.484749 0.164883 0.287674) 576 1152 2
(0.14665 0.410522 0.374645 0.0681831) 577 1155 1
(0.0861366 0.33474 0.473077 0.106046) 601 1199 1
(0.124772 0.371225 0.421457 0.0825469) 625 1246 1
(0.26932 0.379593 0.21668 0.134407) 649 1293 2
(0.628021 0.164518 0.0242033 0.183258) 648 1293 1
(0.466096 0.0812856 0.170129 0.28249) 672 1294 2
(0.0995624 0.300259 0.133826 0.466352) 696 1341 2
(0.479989 0.0990008 0.243988 0.177023) 696 1388 2
(0.166211 0.400752 0.418601 0.0144351) 721 1434 2
(0.328246 0.0381876 0.319735 0.313832) 721 1434 1
(0.0200084 0.407781 0.0660971 0.506113) 744 1481 1
(0.400702 0.0463764 0.254127 0.298794) 768 1482 2
(0.069394 0.166452 0.464842 0.299313) 769 1528 1
(0.692544 0.137715 0.117284 0.0524564) 793 1575 2
(0.126032 0.423991 0.112631 0.337346) 817 1578 1
(0.530937 0.0185936 0.232081 0.218389) 816 1576 2
(0.102469 0.101755 0.464911 0.330865) 816 1623 2
(0.47804 0.113366 0.163755 0.244839) 840 1669 1
(0.569678 0.211124 0.070095 0.149104) 864 1716 2
(0.131335 0.219098 0.202057 0.44751) 888 1717 2
(0.749415 0.110037 0.0967141 0.043834) 888 1764 1
(0.212635 0.167714 0.210156 0.409495) 888 1763 1
(0.47999 0.244263 0.230626 0.0451211) 912 3022 1
(0.569716 0.200725 0.10097 0.128589) 912 1810 2
(0.00828123 0.479771 0.27221 0.239738) 912 1811 1
(0.0272836 0.470256 0.497302 0.00515905) 913 1813 1
(0.400837 0.283612 0.3046 0.0109506) 937 1813 1
(0.432202 0.257273 0.0427699 0.267756) 1368 2657 2
(0.334559 0.348872 0.145401 0.171168) 1369 5 2
(0.232456 0.367623 0.349077 0.0508443) 1 0 2
(0.612616 0.173072 0.0367581 0.177554) 0 0 1
(0.216798 0.0139233 0.407739 0.361539) 1 0 1
(0.185843 0.319074 0.423217 0.0718652) 25 71 1
(0.119367 0.281026 0.456487 0.14312) 24 72 2
(0.18963 0.38904 0.217383 0.203948) 49 118 2
(0.701631 0.100681 0.138311 0.0593769) 49 121 2
(0.0136442 0.50895 0.126858 0.350548) 73 121 1
(0.067552 0.181436 0.482412 0.2686) 73 165 1
(0.268757 0.376215 0.0099007 0.345127) 97 212 2
(0.198817 0.39927 0.295035 0.106877) 121 259 2
(0.637393 0.113053 0.0520983 0.197456) 120 259 1
(0.161783 0.435248 0.385532 0.0174368) 121 262 1
(0.556756 0.0403033 0.197466 0.205475) 144 260 2
(0.0494291 0.200526 0.459129 0.290916) 144 307 2
(0.338484 0.150216 0.164375 0.346926) 168 353 1
(0.643099 0.194601 0.0324277 0.129872) 192 400 2
(0.297306 0.367515 0.271444 0.0637347) 193 400 2
(0.156266 0.405722 0.326586 0.111426) 193 403 1
(0.266434 0.239567 0.350628 0.143372) 217 447 1
(0.673858 0.179211 0.140375 0.00655558) 240 494 2
(0.266711 0.350504 0.178613 0.204171) 241 494 2
(0.0955691 0.468174 0.110344 0.325913) 241 497 1
(0.118353 0.240399 0.456964 0.184285) 265 541 1
(0.404286 0.0786335 0.203084 0.313996) 288 542 2
(0.211716 0.0653637 0.41028 0.31264) 288 589 2
(0.0760544 0.385417 0.0926813 0.445848) 312 635 1
(0.369352 0.101639 0.211069 0.31794) 336 636 2
(0.266981 0.0174387 0.359051 0.35653) 336 683 2
(0.161361 0.403278 0.026752 0.40861) 361 729 2
(0.194408 0.0707883 0.348144 0.38666) 384 730 2
(0.126682 0.217242 0.452798 0.203277) 385 776 1
(0.235238 0.351865 0.398525 0.014372) 385 779 2
(0.73768 0.0543688 0.0929422 0.115009) 409 825 1
(0.207725 0.379983 0.39581 0.0164817) 433 870 2
(0.563317 0.147064 0.0622871 0.227332) 433 826 2
(0.110528 0.428599 0.117529 0.343344) 433 873 1
(0.386441 0.220074 0.293912 0.0995734) 457 917 1
(0.568409 0.231937 0.0482654 0.151389) 481 920 1
(0.0435062 0.494391 0.312156 0.149947) 481 967 1
(0.343357 0.139767 0.344464 0.172413) 505 1011 1
(0.281848 0.317612 0.057598 0.342942) 529 1014 2
(0.37446 0.192753 0.325822 0.106965) 529 1058 1
(0.304807 0.335143 0.183503 0.176547) 553 1105 2
(0.147044 0.410463 0.103569 0.338924) 553 1108 1
(0.790634 0.0354249 0.120834 0.0531078) 577 1155 2
(0.746928 0.112177 0.0304992 0.110396) 601 1155 2
(0.155758 0.438267 0.333132 0.0728425) 625 1202 1
(0.350217 0.308736 0.0070672 0.33398) 625 1249 1
(0.76606 0.0994883 0.0088535 0.125599) 649 1295 1
(0.0448563 0.462681 0.344484 0.147978) 649 1296 1
(0.118107 0.261961 0.42484 0.195092) 673 1340 1
(0.195306 0.386598 0.128679 0.289418) 697 1387 2
(0.477867 0.25529 0.25698 0.00986376) 697 1390 2
(0.26729 0.350231 0.107409 0.27507) 721 1436 2
(0.262614 0.226998 0.354995 0.155394) 721 1437 2
(0.936912 0.0476354 0.0154343 1.82217e-05) 745 1484 1
(0.217765 0.143097 0.231874 0.407264) 769 1484 2
(0.341463 0.313215 0.0884102 0.256912) 769 1484 1
(0.503995 0.20929 0.231922 0.054792) 769 1531 2
(0.0035625 0.344739 0.514368 0.137331) 793 1578 2
(0.692672 0.145297 0.0657551 0.0962754) 817 1625 1
(0.156177 0.304708 0.122893 0.416222) 817 1624 1
(0.524303 0.0175041 0.213395 0.244798) 841 1625 2
(0.487927 0.270827 0.137502 0.103744) 841 1669 2
(0.526182 0.124783 0.0966096 0.252425) 865 1672 2
(0.116974 0.44584 0.0940844 0.343102) 865 1672 1
(0.302938 0.0793795 0.364082 0.2536) 865 1716 1
(0.727673 0.0531071 0.152294 0.0669253) 889 1763 1
(0.808526 0.0301933 0.111884 0.0493964) 1344 2657 2
(0.178544 0.364643 0.426886 0.0299273) 1344 2657 2
(0.770366 0.0940449 0.130956 0.00463384) 1369 2703 1
(0.104544 0.463895 0.113561 0.317999) 1 3 2
(0.935332 0.0113107 0.00486532 0.0484922) 1 3 1
(0.462483 0.236922 0.0479688 0.252626) 25 4 2
(0.117979 0.431882 0.424856 0.0252827) 25 74 2
(0.0222602 0.031917 0.459362 0.486461) 25 73 1
(0.305989 0.222475 0.330831 0.140705) 50 120 1
(0.277733 0.344962 0.0490355 0.32827) 73 167 2
(0.668757 0.159346 0.149419 0.0224768) 73 168 2
(0.0745132 0.0804765 0.366074 0.478936) 73 167 1
(0.720111 0.0325756 0.0913268 0.155987) 97 168 2
(0.332373 0.255366 0.0622996 0.349961) 121 215 2
(0.246278 0.299755 0.393005 0.0609617) 121 262 2
(0.725149 0.124972 0.128802 0.0210767) 145 306 1
(0.432061 0.269196 0.26088 0.0378631) 169 353 2
(0.260264 0.18122 0.17249 0.386026) 169 309 2
(0.386812 0.263942 0.290442 0.0588036) 169 356 2
(0.834688 0.066474 0.0970072 0.00183075) 193 402 2
(0.0430276 0.178193 0.462308 0.316471) 194 402 1
(0.0173702 0.481876 0.025589 0.475164) 217 449 1
(0.242058 0.297261 0.395119 0.0655624) 217 450 2
(0.392098 0.293221 0.312788 0.00189304) 241 496 2
(0.362928 0.334689 0.0374511 0.264932) 265 543 2
(0.415912 0.256819 0.308191 0.0190777) 265 544 2
(0.487343 0.272483 0.127799 0.112375) 289 588 2
(0.124343 0.421672 0.232923 0.221062) 313 591 1
(0.511209 0.260548 0.0554481 0.172795) 313 638 1
(0.359925 0.30388 0.164277 0.171918) 337 682 2
(0.0514201 0.490436 0.0727879 0.385356) 337 685 1
(0.0221882 0.0973867 0.505067 0.375358) 337 685 2
(0.713893 0.0466469 0.112559 0.1269) 361 731 1
(0.404212 0.305771 0.190079 0.0999382) 385 732 1
(0.245576 0.385511 0.0939706 0.274943) 385 778 2
(0.229406 0.0509944 0.392468 0.327132) 386 778 1
(0.174344 0.115752 0.428962 0.280941) 410 825 1
(0.0550292 0.456335 0.0139474 0.474689) 434 872 2
(0.290622 0.370829 0.0194831 0.319066) 457 919 2
(0.0561943 0.208318 0.458867 0.27662) 457 920 2
(0.191693 0.298355 0.388013 0.121938) 482 966 1
(0.342564 0.188207 0.344872 0.124357) 481 967 2
(0.118347 0.4249 0.323859 0.132894) 505 1013 2
(0.0396435 0.496329 0.400165 0.0638624) 530 1060 2
(0.371878 0.0887249 0.209195 0.330202) 529 1060 1
(0.487937 0.266519 0.186569 0.0589749) 553 1107 2
(0.181238 0.425531 0.0133174 0.379914) 577 1154 2
(0.0649544 0.176994 0.483663 0.274389) 578 1154 1
(0.0279597 0.481418 0.0165049 0.474118) 601 1201 1
(0.23266 0.367525 0.082371 0.317444) 625 1248 2
(0.0645422 0.483874 0.000371682 0.451212) 649 1295 2
(0.517239 0.143511 0.225232 0.114017) 650 1295 1
(0.126877 0.420407 0.0607082 0.392008) 673 1342 2
(0.940827 0.011777 0.0339578 0.013438) 673 1296 2
(0.239396 0.167933 0.196231 0.39644) 697 1343 2
(0.135913 0.335577 0.415913 0.112596) 698 1389 1
(0.344134 0.344075 0.177438 0.134354) 722 1392 1
(0.295908 0.0354511 0.368176 0.300466) 722 1436 1
(0.108327 0.43007 0.407107 0.0544959) 745 1483 2
(0.0860785 0.441022 0.1829 0.29) 770 1486 1
(0.0510428 0.28574 0.490584 0.172633) 770 1530 1
(0.323405 0.354444 0.181053 0.141098) 793 1577 2
(0.0423828 0.49496 0.350969 0.111688) 794 1580 1
(0.818527 0.0313494 0.106307 0.0438162) 818 1624 1
(0.39544 0.318433 0.00106174 0.285065) 842 1627 1
(0.000388 0.155737 0.328431 0.515444) 841 1671 1
(0.573492 0.197159 0.0877964 0.141553) 866 1718 2
(0.148048 0.417264 0.012258 0.42243) 890 1721 1
(0.0521946 0.362796 0.484505 0.100504) 865 1719 2
(0.321979 0.155766 0.175733 0.346522) 889 1765 1
(0.487623 0.21553 0.0247766 0.27207) 913 1766 2
(0.272891 0.254711 0.125002 0.347396) 1344 2610 2
(0.570777 0.230779 0.182978 0.0154662) 1345 2659 1
(0.432247 0.267704 0.218669 0.0813798) 1369 2659 1
(0.343462 0.328988 0.258477 0.0690735) 1370 8 2
(0.725957 0.115933 0.153186 0.00492392) 2 3 1
(0.104684 0.071293 0.392526 0.431497) 1 3 1
(0.556776 0.205444 0.125616 0.112164) 26 73 2
(0.484123 0.241786 0.173641 0.10045) 26 75 2
(0.249777 0.0924008 0.298872 0.35895) 50 76 2
(0.415102 0.173455 0.308619 0.102823) 50 123 2
(0.654518 0.180244 0.135897 0.0293404) 74 167 2
(0.103244 0.464572 0.376622 0.0555612) 98 170 1
(0.173038 0.34479 0.424324 0.057848) 98 214 1
(0.104307 0.464005 0.206732 0.224956) 122 261 2
(0.886872 0.0379138 0.034824 0.0403898) 122 217 2
(0.0837264 0.441969 0.327964 0.146341) 122 264 1
(0.300563 0.365879 0.310945 0.0226125) 145 308 2
(0.645174 0.0375257 0.161275 0.156025) 146 308 1
(0.307753 0.332037 0.209211 0.150998) 170 355 2
(0.0155014 0.0103851 0.492527 0.481587) 170 355 1
(0.797886 0.0849047 0.0181352 0.0990742) 194 358 1
(0.214196 0.408838 0.347245 0.0297211) 218 405 1
(0.201866 0.382912 0.155794 0.259428) 242 452 1
(0.378694 0.326802 0.245396 0.0491085) 242 499 1
(0.505464 0.226693 0.263419 0.00442397) 266 543 1
(0.0607739 0.454251 0.0640254 0.42095) 289 590 2
(0.599244 0.0181441 0.198371 0.184241) 289 590 1
(0.342968 0.0111534 0.335733 0.310146) 290 590 1
(0.332513 0.31761 0.198324 0.151554) 313 637 2
(0.680563 0.147054 0.0264232 0.14596) 337 684 2
(0.279137 0.344285 0.143741 0.232837) 338 684 2
(0.0109732 0.510669 0.112757 0.3656) 338 687 1
(0.252769 0.264877 0.388031 0.0943233) 362 731 1
(0.453142 0.273581 0.137044 0.136233) 386 734 1
(0.288091 0.191797 0.339812 0.180301) 386 781 2
(0.919931 0.00548488 0.0455906 0.0289935) 410 828 2
(0.490575 0.251569 0.229726 0.0281297) 434 828 1
(0.00205822 0.515116 0.367981 0.114845) 458 875 1
(0.392367 0.139706 0.287675 0.180251) 458 919 1
(0.434228 0.273042 0.280239 0.0124916) 482 922 1
(0.404183 0.0268738 0.287178 0.281765) 482 968 1
(0.320106 0.356061 0.236205 0.0876289) 506 969 1
(0.278678 0.344506 0.0409672 0.335849) 506 1016 1
(0.768966 0.0572913 0.0994898 0.0742533) 530 1060 1
(0.430048 0.277261 0.284711 0.00798002) 554 1107 2
(0.123591 0.454346 0.107818 0.314245) 554 1110 1
(0.654798 0.156458 0.169163 0.0195803) 578 1156 2
(0.257907 0.387194 0.32524 0.0296587) 602 1157 1
(0.326742 0.352775 0.0735487 0.246934) 602 1204 1
(0.615273 0.161479 0.176218 0.0470299) 626 1248 1
(0.192262 0.305815 0.081912 0.420011) 650 1251 2
(0.455419 0.0272784 0.256733 0.260569) 650 1298 2
(0.548953 0.241666 0.130919 0.0784617) 674 1298 1
(0.179901 0.393918 0.32487 0.101311) 674 1345 1
(0.907392 0.0219735 0.00820248 0.062432) 698 1391 1
(0.182554 0.0730289 0.332219 0.412199) 722 1392 2
(0.496259 0.12476 0.235768 0.143213) 722 1439 2
(0.793158 0.101593 0.0287315 0.0765179) 746 1439 1
(0.0467925 0.271113 0.220045 0.46205) 770 1486 2
(0.658429 0.154698 0.00809784 0.178775) 770 1533 1
(0.636141 0.192543 0.166226 0.00509002) 794 1577 2
(0.171669 0.303677 0.430306 0.094348) 794 1580 2
(0.221555 0.37308 0.382009 0.0233562) 818 1626 2
(0.276021 0.173998 0.181111 0.368869) 842 1627 2
(0.447099 0.292504 0.0065615 0.253836) 842 1674 1
(0.466667 0.250555 0.109852 0.172926) 866 1720 2
(0.00899767 0.419493 0.510776 0.0607339) 866 1721 2
(0.715267 0.131362 0.133816 0.0195547) 890 1768 1
(0.43382 0.123298 0.143669 0.299212) 914 1768 2
(0.256836 0.357385 0.263947 0.121832) 914 1812 2
(0.116016 0.0367349 0.389136 0.458112) 913 1812 1
(0.641339 0.163239 0.101484 0.0939378) 1320 2609 2
(0.535332 0.0919137 0.230961 0.141793) 1320 2610 2
(0.713011 0.127334 0.155356 0.00429907) 1345 2658 2
(0.199051 0.384273 0.119309 0.297367) 1370 2661 1
(0.383627 0.324393 0.0470847 0.244896) 1370 2704 2
(0.060261 0.0126962 0.440987 0.486056) 2 8 1
(0.35044 0.112254 0.2287 0.308606) 2 6 1
(0.671108 0.148303 0.0491856 0.131403) 3 6 2
(0.298853 0.366751 0.0536682 0.280728) 27 10 1
(0.336059 0.315807 0.180952 0.167182) 27 78 1
(0.373429 0.297121 0.00862587 0.320824) 51 122 2
(0.0461832 0.493095 0.308861 0.15186) 75 169 2
(0.221606 0.0324893 0.34053 0.405375) 74 169 1
(0.528916 0.178265 0.251706 0.0411127) 98 217 2
(0.0474818 0.0757109 0.460103 0.416704) 99 216 1
(0.0297622 0.376733 0.0922096 0.501295) 122 263 1
(0.249064 0.219919 0.171684 0.359333) 146 264 2
(0.0921744 0.417117 0.470084 0.0206253) 147 310 1
(0.0996987 0.235603 0.230722 0.433977) 170 311 2
(0.570748 0.168571 0.230791 0.0298908) 170 358 2
(0.0215509 0.0925498 0.505378 0.380521) 171 357 1
(0.238468 0.300422 0.0965022 0.364608) 194 404 1
(0.523173 0.0591643 0.163102 0.254561) 218 451 1
(0.67326 0.150295 0.141712 0.0347325) 242 498 2
(0.375741 0.125018 0.203225 0.296016) 266 499 2
(0.205965 0.237333 0.413162 0.14354) 266 546 2
(0.740696 0.0236162 0.120074 0.115613) 290 592 1
(0.0480736 0.459812 0.476941 0.0151734) 291 595 1
(0.544699 0.211175 0.000493867 0.243632) 314 639 1
(0.523449 0.0529011 0.222145 0.201505) 314 637 1
(0.406489 0.191393 0.121513 0.280605) 338 640 2
(0.00477099 0.146701 0.366024 0.482504) 362 687 2
(0.772935 0.00715922 0.129667 0.0902385) 362 734 2
(0.268423 0.349645 0.0772732 0.30466) 386 780 2
(0.313901 0.326919 0.343579 0.0156012) 387 783 1
(0.0282607 0.469722 0.00224442 0.499773) 411 827 2
(0.0519631 0.490153 0.259878 0.198005) 435 874 2
(0.24026 0.038156 0.395987 0.325597) 434 875 2
(0.659815 0.116087 0.037859 0.186238) 458 921 1
(0.0568294 0.455427 0.080473 0.407271) 482 968 2
(0.551496 0.015157 0.240392 0.192955) 483 968 1
(0.146472 0.436092 0.137432 0.280004) 507 1015 2
(0.0740369 0.0232106 0.455923 0.44683) 530 1016 2
(0.29458 0.117153 0.219419 0.368848) 530 1062 1
(0.61217 0.210054 0.0997302 0.0780456) 554 1109 2
(0.00563088 0.0157856 0.481045 0.497539) 555 1109 1
(0.611345 0.161576 0.178189 0.048891) 579 1156 1
(0.0494248 0.470659 0.0233852 0.456531) 602 1203 2
(0.227939 0.139684 0.230198 0.402179) 602 1203 1
(0.433116 0.267294 0.224023 0.0755672) 626 1250 2
(0.0518078 0.457938 0.0496654 0.440589) 651 1253 1
(0.459304 0.0718706 0.254202 0.214624) 651 1297 1
(0.0592181 0.486531 0.139374 0.314876) 675 1344 2
(0.307575 0.156169 0.362357 0.1739) 674 1345 2
(0.120298 0.45598 0.185701 0.238021) 699 1391 2
(0.186325 0.422979 0.222422 0.168275) 723 1394 1
(0.213268 0.160873 0.409508 0.216351) 723 1438 1
(0.189966 0.421153 0.28204 0.10684) 746 1485 2
(0.0807635 0.467773 0.308146 0.143317) 747 1488 1
(0.0278894 0.379085 0.0908473 0.502178) 770 1532 1
(0.407856 0.312124 0.0552993 0.22472) 794 1579 2
(0.175822 0.0658745 0.395941 0.362362) 795 1579 1
(0.75404 0.106814 0.10324 0.0359066) 819 1626 2
(0.119052 0.45662 0.118897 0.305431) 843 1629 1
(0.045263 0.272465 0.217042 0.46523) 842 1673 1
(0.520473 0.229031 0.231861 0.0186345) 867 1720 2
(0.111093 0.0227933 0.446014 0.4201) 867 1720 1
(0.282568 0.288882 0.0559504 0.3726) 890 1767 1
(0.283656 0.342245 0.371972 0.00212642) 915 1814 2
(0.113884 0.152141 0.275632 0.458343) 914 1814 1
(0.287525 0.340468 0.0658405 0.306167) 914 1815 1
(0.345522 0.338326 0.133183 0.182969) 1296 2562 2
(0.383037 0.0694625 0.292301 0.2552) 1296 2563 2
(0.239302 0.166272 0.229746 0.36468) 1320 2563 2
(0.0831441 0.213443 0.235202 0.468211) 1345 2612 2
(0.680492 0.175904 0.0855418 0.0580623) 1346 2661 1
(0.17843 0.426978 0.157967 0.236625) 1370 2705 2
(0.227091 0.156723 0.383122 0.233064) 1371 2705 1
(0.399962 0.103607 0.283862 0.212569) 1371 11 1
(0.369282 0.299207 0.291996 0.039515) 3 9 2
(0.63488 0.0135213 0.152927 0.198671) 27 10 2
(0.513511 0.0233787 0.203742 0.259368) 51 78 2
(0.123506 0.369904 0.443699 0.0628906) 51 125 2
(0.784066 0.0918157 0.112855 0.011264) 75 172 1
(0.538177 0.214736 0.225819 0.0212676) 99 216 2
(0.526598 0.252898 0.183337 0.0371669) 99 218 2
(0.114671 0.426528 0.434301 0.0245) 123 219 1
(0.0414122 0.495468 0.354797 0.108322) 147 266 1
(0.563924 0.201885 0.0060365 0.228155) 147 313 1
(0.710352 0.160974 0.0445306 0.0841428) 171 359 2
(0.357126 0.337586 0.25255 0.0527376) 171 357 2
(0.130786 0.426845 0.411627 0.0307419) 195 360 1
(0.451167 0.265616 0.258427 0.0247899) 195 407 2
(0.217684 0.402672 0.282993 0.0966501) 219 451 2
(0.183788 0.424235 0.324756 0.0672215) 243 498 2
(0.283798 0.374255 0.305464 0.0364828) 243 501 1
(0.193848 0.34503 0.419229 0.0418928) 267 545 1
(0.137917 0.447208 0.216686 0.198189) 291 592 2
(0.868865 0.0302399 0.0514708 0.0494238) 291 548 2
(0.286672 0.34052 0.362276 0.010532) 315 595 1
(0.38792 0.122783 0.289903 0.199393) 315 639 1
(0.143263 0.418571 0.139546 0.29862) 339 686 2
(0.0618151 0.452926 0.186178 0.299081) 339 689 1
(0.220897 0.288974 0.373404 0.116725) 363 733 1
(0.393643 0.319083 0.174852 0.112422) 387 736 1
(0.461947 0.0889011 0.285157 0.163994) 387 783 2
(0.842112 0.0892181 0.00585338 0.0628165) 411 783 2
(0.261791 0.353243 0.377975 0.00699114) 435 830 1
(0.429686 0.300823 0.16386 0.105632) 435 877 1
(0.288402 0.371944 0.0376732 0.30198) 459 921 2
(0.0916511 0.470331 0.403451 0.0345663) 483 924 1
(0.497283 0.134434 0.133086 0.235196) 483 970 1
(0.54805 0.156648 0.0531705 0.242131) 507 971 2
(0.105654 0.433737 0.0978675 0.362742) 507 1018 1
(0.659411 0.024304 0.154186 0.162099) 531 1062 1
(0.339344 0.314183 0.200653 0.14582) 555 1109 2
(0.261621 0.353054 0.0393813 0.345944) 555 1112 1
(0.41543 0.276127 0.204692 0.103751) 579 1158 2
(0.147013 0.309364 0.133283 0.41034) 603 1159 2
(0.64695 0.192662 0.120528 0.0398595) 603 1206 1
(0.521533 0.255385 0.113059 0.110023) 627 1250 2
(0.121601 0.387573 0.423051 0.067775) 627 1253 2
(0.304223 0.331735 0.345695 0.0183477) 651 1299 2
(0.239353 0.264093 0.132378 0.364176) 675 1300 2
(0.469694 0.249003 0.100054 0.181249) 675 1347 1
(0.91249 0.0159252 0.0116881 0.0598963) 699 1347 2
(0.0736674 0.159036 0.320271 0.447026) 723 1394 2
(0.652377 0.0818855 0.189954 0.0757832) 723 1441 2
(0.62629 0.202996 0.0698962 0.100818) 747 1441 1
(0.216144 0.230323 0.37614 0.177394) 747 1488 2
(0.920134 0.0237792 0.0507993 0.00528739) 771 1535 1
(0.382092 0.324878 0.082756 0.210275) 795 1535 1
(0.489265 0.190094 0.270958 0.0496837) 795 1582 2
(0.292425 0.34493 0.185182 0.177464) 819 1628 2
(0.0267135 0.326483 0.488647 0.158157) 819 1629 2
(0.732992 0.128724 0.0434105 0.0948736) 843 1676 1
(0.414905 0.0480789 0.228332 0.308684) 867 1676 2
(0.294436 0.309428 0.357968 0.0381682) 867 1723 2
(0.67718 0.150852 0.0149316 0.157037) 891 1767 2
(0.139192 0.308767 0.105515 0.446526) 915 1770 2
(0.564071 0.202841 0.0902508 0.142837) 915 1817 1
(0.45203 0.258005 0.150919 0.139046) 939 1861 2
(0.00652043 0.124813 0.355781 0.512886) 1296 2516 2
(0.239562 0.265395 0.364055 0.130987) 1298 2564 1
(0.148922 0.241437 0.429873 0.179768) 1297 2565 2
(0.177576 0.39504 0.33416 0.0932229) 1321 2611 2
(0.362511 0.0887439 0.243583 0.305162) 1321 2611 1
(0.0168981 0.295758 0.211177 0.476167) 1346 2660 1
(0.57989 0.193862 0.18826 0.0379886) 1371 2663 1
(0.492541 0.237559 0.249246 0.0206531) 1372 14 2
(0.635037 0.198648 0.0896158 0.0766987) 4 9 2
(0.0711359 0.455093 0.0760403 0.397731) 28 13 1
(0.108788 0.204834 0.46179 0.224588) 28 77 1
(0.372124 0.330119 0.0605066 0.23725) 52 124 2
(0.0715955 0.48037 0.385872 0.0621627) 76 171 2
(0.2573 0.106295 0.248894 0.387511) 75 171 1
(0.371509 0.330382 0.0721182 0.225991) 100 174 1
(0.245734 0.00992822 0.39332 0.351018) 100 218 1
(0.243769 0.393648 0.356301 0.00628223) 123 265 2
(0.321125 0.355591 0.0411511 0.282133) 147 312 2
(0.0269235 0.108593 0.364682 0.499802) 147 312 1
(0.638474 0.196904 0.0940257 0.0705965) 172 359 2
(0.0292517 0.085535 0.383681 0.501532) 171 359 1
(0.0025384 0.389037 0.482573 0.125852) 196 406 1
(0.309619 0.356821 0.126811 0.206749) 219 453 2
(0.607727 0.17998 0.0604714 0.151822) 219 454 1
(0.787718 0.0613252 0.0609854 0.089971) 243 454 2
(0.184719 0.276436 0.115042 0.423804) 267 501 2
(0.427109 0.0540766 0.270282 0.248532) 267 548 2
(0.0250684 0.471311 0.153411 0.350209) 292 594 2
(0.0337986 0.466932 0.0550721 0.444198) 315 641 2
(0.42782 0.0666538 0.235599 0.269927) 315 641 1
(0.679537 0.108076 0.0682971 0.14409) 339 642 2
(0.129206 0.121957 0.451542 0.297295) 339 689 2
(0.81788 0.0263064 0.0809018 0.0749122) 363 735 1
(0.230407 0.400952 0.0113647 0.357276) 387 782 2
(0.333336 0.13227 0.349493 0.184902) 388 782 1
(0.065792 0.477031 0.314328 0.142849) 411 829 2
(0.0272466 0.470406 0.0435041 0.458844) 435 876 2
(0.404463 0.0853732 0.203727 0.306437) 435 876 1
(0.755597 0.138338 0.0049887 0.101076) 459 923 2
(0.090325 0.0299279 0.470993 0.408754) 459 924 2
(0.452199 0.261327 0.257755 0.0287189) 484 970 1
(0.107675 0.430018 0.340649 0.121658) 508 1017 2
(0.219358 0.0467609 0.32743 0.406451) 507 1017 1
(0.339989 0.281547 0.0510406 0.327423) 531 1064 1
(0.406125 0.153658 0.159426 0.280792) 555 1065 2
(0.0911243 0.210326 0.260254 0.438296) 555 1111 1
(0.555455 0.238434 0.174969 0.0311419) 580 1158 2
(0.0700777 0.448809 0.422033 0.0590803) 580 1161 1
(0.163197 0.292223 0.110029 0.434551) 603 1205 1
(0.525924 0.253182 0.0207278 0.200166) 627 1252 2
(0.0664502 0.124444 0.482935 0.326171) 628 1252 1
(0.655686 0.188304 0.0810013 0.0750085) 652 1299 2
(0.116702 0.457802 0.0840399 0.341455) 676 1302 1
(0.178489 0.230264 0.166084 0.425163) 675 1346 1
(0.0095753 0.489768 0.128015 0.372642) 700 1393 2
(0.0614493 0.485436 0.201969 0.251145) 700 1396 1
(0.165224 0.30214 0.433548 0.0990885) 724 1440 1
(0.259139 0.386582 0.122572 0.231707) 747 1487 2
(0.324646 0.0212747 0.324431 0.329649) 748 1487 1
(0.0933102 0.437251 0.409261 0.0601784) 771 1534 2
(0.208085 0.138966 0.272909 0.38004) 795 1535 2
(0.0841528 0.280999 0.44202 0.192829) 796 1581 1
(0.519561 0.230219 0.0715123 0.178708) 820 1584 1
(0.180305 0.408271 0.36427 0.0471537) 820 1631 1
(0.114184 0.382172 0.0768879 0.426756) 843 1675 1
(0.268714 0.349537 0.0914275 0.290321) 868 1678 1
(0.0548267 0.191135 0.468737 0.285301) 868 1722 1
(0.347234 0.321783 0.253212 0.0777701) 891 1769 2
(0.00777494 0.480142 0.40214 0.109943) 892 1772 1
(0.184641 0.267263 0.124457 0.423639) 915 1816 1
(0.57774 0.0002687 0.195296 0.226695) 939 1817 2
(0.144552 0.234904 0.18215 0.438394) 1272 2515 1
(0.468985 0.281675 0.180019 0.0693217) 1298 2564 2
(0.357409 0.0542689 0.250821 0.337501) 1322 2567 2
(0.493182 0.209109 0.0597072 0.238002) 1322 2613 1
(0.0400891 0.0444509 0.419299 0.496161) 1346 2614 2
(0.823787 0.0738493 0.0756838 0.0266795) 1347 2663 1
(0.248301 0.392058 0.0493552 0.310285) 1371 2706 2
(0.73577 0.0790935 0.0368636 0.148273) 1372 2707 1
(0.310073 0.361105 0.0104043 0.318418) 4 12 2
(0.322005 0.147167 0.322854 0.207975) 4 13 2
(0.967729 0.0119449 0.0114418 0.00888431) 28 3505 1
(0.229409 0.149368 0.252062 0.369161) 52 80 2
(0.311829 0.27149 0.327929 0.0887514) 52 127 2
(0.844208 0.0593668 0.0940697 0.00235587) 76 171 1
(0.0480246 0.217153 0.274997 0.459825) 100 174 2
(0.616847 0.0968345 0.206822 0.0794959) 100 221 2
(0.748519 0.141938 0.084033 0.0255099) 124 221 1
(0.0967216 0.435469 0.25922 0.20859) 148 268 1
(0.568319 0.22698 0.0175516 0.187149) 148 315 1
(0.414518 0.308892 0.0360854 0.240504) 172 361 2
(0.165214 0.276605 0.401243 0.156939) 172 362 2
(0.826318 0.0706836 0.0355309 0.0674677) 196 409 1
(0.51814 0.225459 0.065684 0.190716) 220 409 1
(0.195974 0.0164615 0.415902 0.371662) 220 453 1
(0.00828184 0.397708 0.512016 0.0819943) 244 500 1
(0.317251 0.357509 0.140161 0.185079) 268 503 1
(0.694254 0.00922098 0.136729 0.159796) 268 550 2
(0.652594 0.15754 0.165471 0.0243961) 292 550 1
(0.0698257 0.481273 0.427065 0.0218364) 316 597 1
(0.530299 0.0522858 0.250998 0.166417) 316 641 1
(0.0949938 0.46865 0.168393 0.267963) 340 688 2
(0.247802 0.359959 0.174114 0.218125) 340 691 1
(0.214801 0.381142 0.0142559 0.389802) 364 735 2
(0.143669 0.422014 0.317991 0.116326) 388 738 1
(0.642728 0.0392373 0.123236 0.194799) 388 784 1
(0.536815 0.216544 0.187092 0.0595487) 412 785 1
(0.0432313 0.494547 0.0206169 0.441605) 412 832 1
(0.549171 0.0941327 0.241568 0.115128) 436 876 1
(0.195823 0.385957 0.224158 0.194062) 460 923 2
(0.299231 0.334218 0.116631 0.24992) 460 926 1
(0.598338 0.216999 0.103767 0.0808957) 484 972 2
(0.131037 0.406762 0.0438748 0.418326) 508 973 2
(0.533861 0.216911 0.151768 0.09746) 508 1020 1
(0.677983 0.14486 0.07356 0.103597) 532 1064 2
(0.19055 0.420877 0.0547863 0.333786) 556 1067 1
(0.705505 0.131089 0.0642132 0.0991923) 556 1114 1
(0.416996 0.0386384 0.236739 0.307627) 580 1114 2
(0.264392 0.293613 0.35205 0.0899447) 580 1161 2
(0.788244 0.0797014 0.121811 0.0102434) 604 1205 1
(0.369659 0.331329 0.0296652 0.269347) 628 1208 1
(0.509837 0.23559 0.254442 0.0001298) 628 1255 2
(0.390433 0.288618 0.110098 0.210851) 652 1301 2
(0.0745737 0.339315 0.44655 0.139561) 652 1302 2
(0.764808 0.101432 0.0781452 0.0556146) 676 1349 1
(0.649833 0.158934 0.158479 0.0327538) 700 1349 1
(0.223945 0.112375 0.371879 0.2918) 700 1396 2
(0.852224 0.041097 0.0166454 0.0900337) 724 1442 1
(0.357775 0.337251 0.195673 0.109301) 748 1443 1
(0.497404 0.0922731 0.240562 0.169761) 748 1490 2
(0.776908 0.0954026 0.0583159 0.0693737) 772 1490 1
(0.0558675 0.488041 0.209877 0.246215) 796 1537 1
(0.780281 0.0846199 0.0937425 0.0413566) 796 1584 2
(0.370575 0.00613108 0.292446 0.330848) 820 1584 2
(0.330196 0.220377 0.318836 0.13059) 820 1631 2
(0.840243 0.0927046 0.00240678 0.0646454) 844 1675 2
(0.107337 0.238881 0.19145 0.462332) 868 1678 2
(0.593137 0.190447 0.192026 0.024389) 868 1725 2
(0.629594 0.186033 0.148436 0.0359374) 892 1769 2