/*--------------------------------*- C++ -*----------------------------------*\
  =========                 |
  \\      /  F ield         | OpenFOAM: The Open Source CFD Toolbox
   \\    /   O peration     | Website:  https://openfoam.org
    \\  /    A nd           | Version:  8
     \\/     M anipulation  |
\*---------------------------------------------------------------------------*/
FoamFile
{
    version     2.0;
    format      ascii;
    class       vectorField;
    location    "0/lagrangian/kinematicCloud";
    object      torque;
}
// * * * * * * * * * * * * * * * * * * * * * * * * * * * * * * * * * * * * * //


3300
(
(-2.41143e-08 1.2877e-08 3.16797e-07)
(8.3741e-08 7.33289e-08 -7.83943e-07)
(-2.08264e-07 1.596e-07 -5.5977e-07)
(-5.99463e-08 -1.0954e-06 7.9751e-07)
(4.09365e-07 1.82131e-07 1.62012e-07)
(-5.78045e-07 -1.75168e-06 8.74996e-06)
(-1.36568e-07 2.73783e-07 6.62501e-07)
(2.57173e-08 1.25089e-07 8.23571e-07)
(9.4452e-08 4.68948e-08 6.62079e-07)
(-8.31486e-08 1.39364e-07 8.3833e-07)
(-1.31468e-07 1.30968e-07 -1.36244e-06)
(2.55878e-07 -1.54002e-07 1.89087e-07)
(-3.36005e-07 7.26811e-07 7.91144e-08)
(-3.16964e-09 -2.29926e-07 9.14016e-07)
(-3.38659e-07 -2.43529e-08 -2.34194e-07)
(4.22997e-07 -3.67526e-07 4.82771e-07)
(3.31901e-07 -5.57074e-07 -1.60788e-07)
(-2.18268e-07 2.67846e-08 -3.9126e-07)
(3.16488e-07 -3.69612e-08 2.09737e-07)
(-3.03029e-08 -3.15725e-07 -1.48934e-07)
(-8.60651e-08 1.4783e-08 -1.28164e-07)
(-3.85041e-07 -4.87758e-08 -1.46624e-07)
(-1.29404e-08 -2.02402e-07 3.01523e-07)
(-1.5365e-07 1.32012e-07 -4.11258e-06)
(2.63059e-07 2.09985e-09 5.62037e-07)
(2.40307e-08 7.19242e-10 8.65151e-07)
(-4.97053e-08 -4.54996e-08 -5.80089e-07)
(-1.58739e-07 -1.08543e-07 3.96032e-07)
(0 0 0)
(6.21802e-07 2.20496e-07 3.04944e-07)
(4.25044e-07 -4.66012e-07 3.56013e-06)
(2.39936e-07 6.38082e-09 4.83501e-06)
(3.23581e-07 -8.31152e-08 2.42229e-06)
(-1.51144e-07 -1.54748e-07 -7.90148e-06)
(1.84073e-08 4.77033e-08 -6.81554e-08)
(3.4406e-08 6.27111e-08 6.27539e-08)
(-2.13477e-09 -2.29816e-08 -2.98353e-08)
(-1.13793e-07 -1.66988e-08 3.964e-08)
(7.47337e-08 -9.56607e-08 -2.29386e-08)
(2.41522e-08 -1.82712e-08 -3.80184e-08)
(7.16844e-08 -8.92141e-10 -5.65027e-09)
(7.88558e-08 -1.05301e-07 -1.33458e-08)
(-8.94548e-08 7.83098e-08 8.85707e-09)
(-7.96995e-08 4.17466e-08 -6.61361e-08)
(-3.64882e-08 4.5676e-08 5.02059e-08)
(2.07445e-07 1.02638e-07 -9.37933e-09)
(1.0812e-07 -2.25649e-08 -4.86003e-08)
(-4.18342e-07 -1.18024e-08 3.85556e-08)
(4.16567e-08 2.81721e-08 1.99942e-08)
(7.92466e-08 -5.34791e-09 2.24259e-07)
(-2.57656e-08 -2.55318e-07 -1.08961e-07)
(1.05648e-07 -5.77961e-08 -8.09891e-09)
(3.4538e-08 1.21429e-07 -1.10307e-07)
(-9.11764e-09 4.94258e-08 -3.37572e-07)
(1.98993e-07 -9.50954e-08 2.17027e-07)
(4.52251e-07 1.23629e-07 2.45959e-07)
(-3.8818e-08 -1.51067e-08 -3.47432e-07)
(3.64365e-07 -3.70307e-07 -2.63768e-07)
(9.96938e-08 -2.47636e-07 6.21272e-07)
(-2.6986e-07 4.73062e-07 -7.49722e-06)
(3.62434e-08 -1.95347e-07 2.64115e-07)
(6.15136e-08 -2.5228e-08 -3.01991e-08)
(-6.66656e-08 -6.47045e-08 -1.14111e-07)
(-3.84362e-08 1.72297e-07 -1.67012e-08)
(-1.49857e-08 -2.71738e-07 2.7249e-07)
(1.80437e-07 3.2338e-08 -1.76252e-06)
(-1.33435e-07 -2.36816e-08 4.6997e-07)
(-7.79111e-08 1.87402e-08 6.20997e-07)
(-1.33339e-07 1.43552e-07 8.62043e-08)
(2.00081e-06 -1.61837e-07 -1.2335e-07)
(-2.20746e-07 3.2362e-07 -1.44781e-06)
(-1.29013e-07 -1.81282e-06 7.42318e-06)
(-2.03943e-07 -1.07968e-07 -1.09129e-06)
(1.27892e-07 -7.73582e-08 -1.11053e-07)
(2.29301e-08 -6.11317e-08 -1.16548e-06)
(-5.46453e-08 -1.46276e-07 4.04864e-07)
(1.07585e-07 -2.27215e-08 -4.30816e-07)
(-1.39721e-07 8.582e-09 -4.82368e-07)
(-3.27683e-08 -1.59877e-07 -1.95869e-07)
(5.7891e-07 -9.10242e-08 -5.52877e-07)
(-3.5826e-07 1.39303e-07 4.89076e-07)
(2.08637e-08 3.53742e-07 9.51314e-07)
(5.09875e-08 -1.78432e-07 -1.18275e-07)
(-1.93047e-08 1.24364e-07 4.09312e-07)
(-1.49667e-07 1.89994e-07 -1.00741e-08)
(-5.21347e-07 -2.26716e-08 6.60287e-07)
(3.88353e-07 -1.2956e-07 5.92477e-07)
(4.69417e-07 1.71048e-07 -1.41521e-06)
(-2.43236e-07 2.79592e-07 5.95361e-07)
(-1.14491e-07 -5.84685e-08 -8.62872e-07)
(-9.33158e-11 8.1817e-09 4.26276e-07)
(7.50695e-07 2.28544e-07 2.16846e-08)
(-6.6761e-07 -9.86773e-07 1.14692e-07)
(-5.81985e-07 4.43832e-07 -1.70814e-06)
(5.49913e-07 -1.26264e-07 -8.28553e-08)
(6.96931e-07 4.27247e-07 -2.16722e-06)
(-1.60254e-07 8.03762e-08 -1.11803e-06)
(-4.39865e-09 -4.78548e-09 5.06673e-07)
(1.22211e-08 1.23667e-08 -3.62799e-07)
(-1.28575e-08 -3.75698e-08 2.32316e-06)
(-3.57459e-10 7.53521e-09 8.95257e-07)
(2.39228e-10 9.27662e-09 1.13314e-06)
(-4.1893e-10 1.04481e-10 -2.82598e-07)
(0 0 0)
(0 0 0)
(-1.43483e-08 -9.75228e-08 9.46445e-08)
(-1.75062e-07 5.76949e-08 9.17707e-09)
(-7.78295e-08 -3.21631e-08 -5.97928e-08)
(-4.39843e-08 1.4649e-09 -6.53688e-08)
(-3.88408e-10 1.09794e-07 1.82917e-08)
(8.03023e-08 1.53014e-07 4.67171e-08)
(-9.14048e-08 -3.5031e-08 5.18831e-08)
(1.00022e-08 -1.17373e-07 7.25741e-08)
(-1.27606e-07 9.56909e-09 1.02704e-07)
(8.66099e-08 -9.47385e-09 -7.35127e-08)
(-3.28392e-07 -1.01591e-08 -7.31033e-09)
(6.39974e-08 -1.66068e-08 -1.01818e-07)
(5.06448e-08 2.05087e-08 -1.51579e-07)
(-1.26455e-07 -8.99579e-08 6.43159e-08)
(3.69374e-08 -5.27966e-08 1.76355e-07)
(1.90632e-07 1.94034e-08 1.1255e-07)
(1.81475e-07 -2.01882e-07 -1.07094e-07)
(8.99431e-07 6.53698e-08 -9.85308e-09)
(-3.17915e-08 9.19798e-08 1.61743e-07)
(3.82563e-07 8.91169e-08 -3.4378e-07)
(-9.52703e-08 -1.36917e-08 1.0032e-07)
(1.79285e-07 2.66347e-07 -2.71209e-07)
(-1.72422e-07 3.74407e-09 2.97582e-08)
(3.0422e-07 2.23734e-07 5.24039e-08)
(-1.25624e-07 2.50093e-07 -5.15975e-08)
(-1.94201e-07 3.4304e-07 -3.61496e-06)
(3.41852e-07 1.55938e-07 -6.10677e-06)
(-1.79002e-08 -2.36623e-08 1.57676e-07)
(1.38642e-08 1.39249e-07 1.31871e-06)
(1.95064e-07 -7.91554e-09 -1.1971e-07)
(-7.68568e-08 1.03999e-07 4.62708e-07)
(-5.82929e-08 9.69278e-09 3.07473e-07)
(-3.30758e-07 -7.50026e-08 -7.10202e-07)
(1.42487e-07 -7.13426e-08 1.44193e-07)
(2.26347e-07 2.31116e-07 -4.68657e-07)
(-3.62912e-07 -2.19677e-07 3.61451e-07)
(8.47158e-07 -9.98234e-08 3.63669e-07)
(2.38302e-07 -9.76835e-08 -1.86265e-07)
(9.4279e-08 6.42102e-07 -2.74504e-07)
(-3.54438e-07 4.9647e-08 -7.84374e-08)
(6.41228e-08 -1.17565e-07 2.81982e-07)
(-2.96597e-07 5.3017e-08 -9.22294e-07)
(8.58881e-08 2.9199e-07 -4.64364e-07)
(1.06407e-07 -1.73214e-07 -4.12821e-07)
(2.19222e-07 1.86234e-07 -2.51603e-07)
(-1.12469e-07 -7.76221e-09 6.76052e-07)
(2.68489e-09 -6.75498e-08 9.03584e-07)
(-4.42038e-07 -1.17652e-07 2.53868e-07)
(7.64919e-07 -1.28577e-07 2.32062e-07)
(2.72508e-09 4.23095e-08 3.45242e-07)
(1.05143e-07 -1.60783e-07 2.63476e-07)
(1.75116e-07 1.09256e-08 -2.22632e-07)
(6.83737e-08 6.37485e-09 -3.80079e-07)
(1.61377e-07 2.17508e-07 8.99588e-08)
(-5.01666e-07 -5.14954e-08 -4.37735e-07)
(8.09858e-08 1.08654e-07 3.54832e-07)
(1.9016e-07 2.91226e-07 -5.62236e-08)
(-5.04224e-07 3.10397e-07 -1.68606e-07)
(-2.19472e-07 4.37758e-07 -2.21792e-07)
(-2.92657e-07 1.48645e-07 -2.21639e-07)
(1.37746e-07 5.76589e-07 -8.19883e-07)
(-2.16039e-07 4.44527e-07 -1.57275e-06)
(-6.62554e-07 7.93935e-07 -1.16512e-06)
(-1.096e-06 8.93285e-07 1.23796e-06)
(1.82851e-06 -9.33325e-07 -1.70424e-06)
(-1.15943e-06 -5.09113e-07 -7.81975e-07)
(-3.07308e-08 -1.72119e-08 1.74528e-07)
(8.65806e-08 -1.74937e-08 7.93979e-07)
(-1.49169e-07 5.7343e-08 1.95925e-06)
(5.85341e-09 -1.26817e-08 3.81722e-07)
(-7.24541e-08 -2.59555e-08 -1.86751e-06)
(-2.48734e-07 1.09909e-07 -4.52635e-08)
(2.62059e-07 -1.80161e-07 -1.89738e-08)
(1.5334e-07 -9.53946e-08 1.34904e-08)
(1.79402e-07 1.03218e-07 1.89435e-08)
(6.09683e-08 1.27433e-08 -5.18526e-08)
(1.28261e-08 -2.31274e-07 -9.38988e-08)
(1.58128e-07 4.64167e-08 -1.22208e-07)
(-8.98391e-08 -9.82852e-08 1.9977e-07)
(8.35887e-07 -1.494e-08 -8.22803e-08)
(6.51447e-07 5.47631e-07 -8.80609e-08)
(-1.72811e-06 -6.36342e-07 -3.84541e-08)
(7.04572e-08 6.88294e-08 7.54207e-08)
(-3.37001e-08 -8.80487e-08 3.15099e-07)
(1.86578e-07 -1.5023e-07 2.84379e-07)
(-4.49044e-07 -4.11517e-08 2.35204e-07)
(-6.01347e-08 1.81312e-07 3.11159e-07)
(1.19355e-07 -3.20347e-08 4.96232e-08)
(1.70668e-07 -6.01894e-08 -1.81048e-07)
(4.78676e-08 -3.38591e-08 5.97483e-07)
(-2.12676e-07 2.11039e-07 4.06719e-07)
(2.6655e-08 -2.44388e-07 1.79127e-07)
(1.4605e-07 7.84871e-08 2.46463e-07)
(3.70159e-07 -3.0273e-07 -9.09966e-08)
(-2.27847e-07 2.05988e-07 5.90266e-07)
(2.31098e-07 -6.78672e-08 -3.15641e-08)
(-3.95576e-08 1.24443e-07 -3.35232e-06)
(-2.06416e-07 -2.26645e-07 1.95065e-06)
(-2.11024e-07 4.7132e-07 -5.53026e-07)
(5.29567e-07 -4.47263e-08 1.02122e-06)
(4.02857e-07 2.24891e-08 1.80514e-06)
(1.75733e-07 -1.32007e-07 5.47648e-07)
(1.37598e-07 5.55575e-07 -2.18161e-06)
(4.47316e-07 -9.53589e-07 2.11243e-06)
(-3.56932e-07 -6.48939e-08 -1.13791e-06)
(-5.22187e-07 2.42613e-07 1.64108e-06)
(-6.19524e-08 -3.47774e-08 3.80775e-06)
(-7.87276e-08 -3.33663e-07 -3.31572e-07)
(6.43265e-08 2.62022e-07 -2.91838e-07)
(-5.81964e-07 -3.07629e-07 -4.52025e-07)
(-8.04144e-08 -1.98361e-07 4.38141e-07)
(-1.30908e-07 -1.68586e-07 3.91661e-07)
(3.88468e-07 2.2603e-07 -4.07871e-08)
(4.4072e-07 4.13194e-07 5.72379e-07)
(-8.34668e-08 5.00708e-08 -1.87615e-07)
(-1.73641e-07 3.53343e-07 2.33298e-07)
(1.9579e-07 -2.00206e-07 6.14083e-07)
(-3.13304e-07 -1.37265e-07 -1.55488e-07)
(-3.39326e-07 -5.83684e-07 6.35969e-08)
(1.11512e-07 -2.62972e-07 4.18272e-07)
(-2.54354e-07 -5.84297e-08 -3.42554e-07)
(-1.22553e-06 -6.99404e-07 5.66183e-08)
(7.94006e-08 -5.38044e-07 -5.4697e-08)
(-2.21027e-07 2.04857e-07 1.51308e-07)
(-3.86553e-07 -3.40549e-08 7.62542e-08)
(2.60594e-07 3.75437e-07 3.1661e-07)
(-1.03989e-07 -2.33983e-07 -4.61225e-07)
(1.26856e-07 -1.83305e-07 -4.82941e-07)
(-2.02578e-07 1.85485e-07 1.20187e-06)
(-1.54595e-08 -8.3607e-07 -3.3179e-07)
(-7.14935e-08 -5.11967e-07 8.35338e-07)
(1.12311e-06 -2.31993e-07 -7.30608e-09)
(-2.17831e-07 -6.55721e-07 1.53734e-06)
(-9.33499e-07 -9.07618e-08 6.90125e-07)
(1.62036e-06 1.91045e-06 -6.3733e-07)
(-8.68011e-07 -1.8933e-07 1.82603e-06)
(-3.9599e-07 -1.2235e-08 -1.59696e-06)
(-6.14403e-08 -2.05454e-07 -5.26247e-07)
(-4.34666e-07 -2.51604e-07 2.29554e-06)
(-6.04054e-08 -3.33418e-09 7.7228e-07)
(2.66158e-08 1.66257e-08 2.62062e-07)
(0 0 0)
(7.2229e-09 1.07302e-09 1.78966e-08)
(2.66379e-08 -7.07164e-08 8.65241e-08)
(1.41807e-08 -7.37511e-08 -3.4249e-08)
(-5.15202e-08 7.14603e-09 5.16369e-08)
(2.5463e-08 2.0951e-07 -1.88527e-08)
(-2.34198e-07 -1.72169e-07 1.3073e-07)
(2.70869e-07 1.9125e-07 -5.5918e-08)
(-1.65081e-07 -1.09458e-07 3.64202e-07)
(2.09773e-07 -2.02695e-07 -6.31579e-08)
(-3.68778e-07 4.36801e-07 -1.72889e-07)
(-3.06307e-08 2.59839e-08 2.74885e-07)
(-4.09128e-08 -4.6006e-08 -3.00154e-07)
(2.19653e-07 6.86385e-08 -1.92813e-07)
(1.23975e-07 2.4466e-07 8.55683e-08)
(-1.3956e-07 -4.55718e-08 9.43977e-09)
(6.57903e-08 1.4728e-07 -1.82292e-07)
(-6.3837e-08 -1.71544e-07 -1.62486e-07)
(-7.50848e-08 -7.02883e-08 -1.23846e-07)
(9.73847e-08 1.51648e-07 4.19177e-07)
(-3.07761e-08 -1.34069e-07 2.30249e-06)
(-7.17104e-08 2.94606e-07 -1.90072e-07)
(-1.61431e-07 -7.63737e-08 -5.17767e-07)
(-4.38531e-07 2.43372e-07 -4.16337e-08)
(1.06843e-07 -2.68595e-07 1.3569e-07)
(3.48315e-07 1.25632e-07 2.93562e-07)
(-6.47219e-08 -1.15676e-07 -3.41401e-06)
(5.39078e-07 -2.93482e-07 -4.87434e-06)
(1.45107e-08 6.02331e-08 -2.02099e-07)
(1.75017e-07 1.06667e-07 -5.90206e-06)
(-7.18216e-07 -1.00474e-08 9.57484e-07)
(-1.19405e-07 8.65207e-07 1.26244e-05)
(3.27469e-07 8.06186e-07 9.08796e-06)
(-1.63825e-07 1.11178e-07 -1.12753e-06)
(-1.00323e-07 -9.10514e-08 -1.48133e-06)
(-1.46815e-07 -5.72708e-08 -1.77442e-07)
(6.97461e-08 5.99027e-07 8.02872e-07)
(-8.08809e-08 -2.78765e-08 -4.67686e-07)
(1.02869e-07 1.63529e-07 1.13616e-07)
(3.57953e-07 1.227e-07 -9.7357e-08)
(-3.65023e-07 1.52777e-07 2.76464e-07)
(2.96466e-08 1.06077e-07 -1.0854e-08)
(-7.85517e-08 -3.97266e-07 -1.58772e-07)
(3.31656e-07 4.64465e-08 7.85448e-08)
(1.18487e-07 1.69811e-08 -2.58637e-07)
(4.23366e-08 2.76292e-08 1.65256e-07)
(1.30993e-07 4.2941e-08 1.05043e-06)
(1.167e-07 3.62825e-07 -4.51616e-07)
(-1.27749e-07 -1.05436e-07 2.79811e-07)
(-4.29822e-07 3.60314e-07 -1.28565e-07)
(2.42663e-07 -3.00952e-07 -7.94574e-08)
(2.45345e-07 2.80232e-07 1.11188e-07)
(-4.26259e-07 -1.1631e-07 4.19143e-07)
(1.26865e-07 -2.61626e-07 -4.68585e-07)
(6.96445e-08 3.10349e-08 4.95917e-07)
(1.42019e-08 -4.09281e-08 -5.62211e-07)
(-5.39113e-08 1.11973e-07 1.09058e-06)
(-3.28897e-07 1.46854e-07 3.41914e-07)
(-2.19623e-08 2.66441e-07 7.47404e-08)
(1.76003e-07 2.53299e-07 3.64843e-08)
(2.98913e-08 -8.08111e-08 2.92336e-06)
(1.72104e-06 -1.00428e-07 -1.43468e-06)
(1.03781e-08 -1.06072e-06 2.86038e-07)
(-1.49113e-06 2.67872e-06 1.33304e-06)
(5.06182e-07 -1.50344e-06 6.47857e-06)
(-8.77613e-07 1.04372e-06 5.18636e-06)
(-2.53782e-07 -4.96566e-08 1.37501e-06)
(1.98743e-07 2.2616e-07 8.66081e-06)
(-7.28135e-08 -2.83329e-08 2.97554e-06)
(2.40241e-08 -1.14599e-08 -9.2311e-07)
(-3.31105e-09 -8.97433e-10 -2.18677e-07)
(0 0 0)
(4.33275e-08 -8.55933e-08 1.2572e-06)
(1.09871e-08 5.70201e-08 1.05773e-06)
(9.40966e-09 5.5788e-08 3.51215e-08)
(-9.32444e-08 -5.9748e-08 -1.01804e-07)
(9.92702e-09 7.66304e-08 3.31235e-08)
(-6.40716e-08 -8.12659e-08 -5.74446e-08)
(2.1316e-07 -7.49331e-07 -9.86207e-08)
(-1.13427e-07 -1.03284e-07 -1.67312e-07)
(-2.90121e-07 2.41338e-07 2.60082e-07)
(-2.11327e-08 2.55685e-07 1.21272e-07)
(3.41658e-07 -2.75588e-07 -2.81403e-07)
(1.79889e-07 4.54891e-07 -1.20243e-07)
(3.48469e-07 1.08573e-07 4.03954e-07)
(2.46597e-07 -1.04848e-08 1.47495e-07)
(3.32112e-07 1.54507e-07 -3.32732e-07)
(-1.19536e-08 -7.54511e-07 -1.07663e-07)
(6.02596e-07 -3.22731e-07 4.71627e-07)
(-1.26693e-07 1.45891e-07 -7.18899e-07)
(5.0807e-07 -2.58204e-07 -4.54165e-07)
(-6.51267e-07 -1.69081e-07 2.67524e-09)
(1.87367e-07 -7.75677e-09 8.45029e-07)
(-6.63641e-08 -5.73584e-07 -1.3411e-06)
(-1.47833e-07 1.04253e-07 -1.95046e-08)
(-4.44427e-08 -1.45297e-07 -8.30817e-08)
(1.37468e-08 -5.60889e-08 2.37302e-07)
(3.18458e-07 1.65571e-07 -4.30944e-07)
(-4.57913e-07 8.17263e-08 3.06825e-06)
(-3.48857e-07 4.43917e-07 2.46103e-06)
(3.46582e-07 -1.64049e-07 1.73703e-07)
(-3.42751e-08 -3.5824e-08 3.16609e-07)
(-1.79577e-08 -1.1448e-09 -1.36067e-06)
(1.7125e-08 -8.13869e-08 -6.30522e-07)
(3.04231e-08 -3.11959e-08 3.68745e-07)
(-3.12634e-07 2.99733e-07 -2.88522e-07)
(-7.92369e-09 -1.40002e-08 6.39778e-07)
(-3.1354e-07 -1.39343e-07 -4.83246e-07)
(3.57308e-07 3.99352e-07 -3.09452e-07)
(1.57216e-07 8.81965e-08 4.72664e-07)
(-2.19022e-07 1.75094e-07 -1.25648e-07)
(-2.28469e-07 -3.40261e-07 -3.74449e-07)
(8.73808e-09 -2.47536e-07 -3.12557e-07)
(-5.53301e-08 7.40191e-08 2.74974e-07)
(7.25647e-08 9.88029e-08 -2.8826e-07)
(-5.88108e-08 -4.5932e-08 8.53868e-07)
(-6.72116e-08 3.62493e-07 -1.04844e-06)
(-1.91876e-08 -7.09906e-08 1.29699e-07)
(-1.24201e-07 2.84251e-08 -2.79545e-07)
(-1.38009e-07 2.46861e-07 3.99968e-07)
(-4.7652e-07 2.05631e-07 -3.11576e-07)
(3.07003e-07 -9.39657e-08 6.42578e-08)
(-2.09978e-07 -2.52046e-07 3.31884e-07)
(-1.49552e-07 -4.30679e-08 3.0648e-07)
(-1.02649e-07 -1.64615e-07 -1.47777e-07)
(-1.09159e-07 2.59739e-07 5.92109e-07)
(-3.20553e-08 -3.38302e-08 -1.19293e-06)
(3.70551e-07 -1.02661e-07 2.91755e-07)
(2.44223e-07 -4.8699e-07 -5.04616e-07)
(-2.72202e-07 -5.08063e-08 1.84079e-07)
(7.38696e-07 3.4514e-07 -1.84624e-07)
(-3.17416e-07 -6.98429e-08 1.7897e-07)
(6.78876e-07 5.2412e-07 -2.15132e-07)
(1.85517e-07 1.95162e-06 5.69341e-07)
(-9.4562e-08 -3.26811e-07 1.91048e-07)
(1.86017e-06 -1.48065e-07 -2.15019e-06)
(-1.03665e-06 -3.86404e-07 2.6861e-06)
(8.44414e-07 -6.20278e-07 1.47709e-06)
(-8.32402e-07 -3.03452e-07 1.68313e-06)
(3.35983e-08 -1.51406e-08 1.63543e-06)
(-9.17209e-09 -1.25969e-08 -8.91293e-07)
(-2.66755e-08 -1.30875e-08 -1.25584e-06)
(0 0 0)
(-2.17128e-08 -1.42657e-08 -1.5408e-07)
(-3.90241e-07 -4.06874e-07 1.93698e-07)
(6.0609e-08 1.94504e-07 -3.32704e-07)
(-1.20161e-07 1.6835e-08 5.16958e-07)
(2.62983e-07 -4.29287e-08 -2.33483e-07)
(-5.52729e-08 1.36437e-09 5.45145e-08)
(4.47952e-08 1.70074e-08 -1.20158e-07)
(-3.25143e-08 5.6921e-08 4.68912e-08)
(8.39716e-09 1.96267e-07 3.24192e-08)
(1.0043e-07 -3.84885e-08 -2.98649e-08)
(3.21389e-08 -2.08443e-08 -1.31898e-07)
(9.69002e-08 -1.06249e-07 6.04671e-08)
(-4.36055e-07 2.14731e-08 3.38643e-07)
(-2.02012e-07 2.86263e-08 -1.38782e-07)
(-6.71191e-09 -2.28734e-07 7.17447e-08)
(-3.32224e-10 2.25698e-08 6.02828e-08)
(3.07931e-07 -4.81557e-08 4.55554e-07)
(1.44963e-07 3.65538e-07 1.34737e-07)
(-1.71631e-07 7.80526e-08 4.15181e-07)
(-1.50269e-07 1.16513e-07 -1.05357e-06)
(1.60054e-07 -3.09992e-08 -3.95894e-07)
(-7.26529e-08 4.7824e-09 -1.61503e-09)
(4.60189e-08 -7.17475e-09 4.32115e-07)
(1.45616e-07 -4.49466e-08 1.07776e-07)
(-1.0031e-07 2.30536e-07 1.83885e-07)
(-5.10441e-08 9.25458e-09 1.33255e-07)
(2.59162e-07 3.77144e-07 9.40226e-07)
(2.06316e-07 1.24102e-07 5.61913e-07)
(-1.19976e-08 -2.31049e-07 3.1675e-07)
(-6.44351e-08 8.39933e-08 9.41594e-07)
(8.9629e-08 1.32151e-07 -3.18586e-07)
(2.81137e-07 -3.35553e-07 2.70458e-07)
(1.69557e-07 3.83161e-07 -6.16282e-07)
(-1.22679e-08 1.885e-07 9.20512e-08)
(3.43222e-07 1.97733e-07 -1.47316e-07)
(-1.6352e-07 -3.29823e-07 -1.44991e-07)
(4.03464e-07 -2.28186e-08 2.02596e-07)
(4.36347e-07 -4.25155e-08 1.59796e-07)
(-3.9443e-07 3.62471e-08 7.41323e-07)
(-6.33145e-07 2.89259e-07 -5.48117e-08)
(4.32532e-08 2.29359e-07 4.83659e-07)
(-6.23898e-07 4.62734e-08 -4.89045e-07)
(1.09094e-07 -2.04193e-07 1.67005e-07)
(8.04165e-08 6.73338e-08 -9.43111e-08)
(4.72534e-07 -2.88641e-07 2.54041e-07)
(-7.74915e-08 6.0088e-08 1.25561e-07)
(4.31679e-07 4.08203e-08 4.40821e-07)
(-9.58137e-08 -3.24364e-07 -1.66717e-07)
(4.3138e-08 6.53057e-09 1.04586e-07)
(1.93909e-07 1.43009e-07 -3.9133e-07)
(4.74229e-07 1.54166e-07 -1.70086e-07)
(-1.20621e-07 2.5971e-07 2.99375e-07)
(-1.14134e-07 -2.23569e-07 4.22022e-07)
(2.22721e-07 4.48674e-08 -4.71842e-07)
(-4.63575e-07 3.59384e-07 7.00526e-07)
(4.84741e-07 -2.17854e-07 2.53325e-07)
(3.39026e-07 2.0153e-07 2.20076e-08)
(-8.01032e-07 1.35388e-07 6.43031e-09)
(-9.02464e-07 -6.24146e-07 -4.90294e-07)
(1.40667e-06 -7.21704e-07 -3.19643e-06)
(4.80563e-07 -1.05351e-07 2.4569e-06)
(4.56469e-07 -3.12435e-07 9.95091e-08)
(-1.00305e-07 -6.74285e-07 -4.96086e-07)
(1.16988e-06 -1.33376e-06 1.74991e-06)
(-3.05158e-07 6.78564e-08 -2.26778e-06)
(-1.40872e-07 -1.18044e-06 -1.18823e-07)
(1.98391e-07 -8.55646e-07 -1.55831e-06)
(3.83871e-08 3.60802e-08 -3.94425e-06)
(6.54391e-08 4.89084e-08 1.76092e-06)
(2.42341e-09 -2.06247e-09 -1.18481e-06)
(1.54213e-10 -3.20396e-11 -9.05029e-08)
(-1.11407e-07 -1.79948e-07 -1.28036e-08)
(1.40118e-07 -4.54201e-07 1.47925e-08)
(3.12007e-08 1.92416e-07 1.20814e-07)
(-2.45026e-07 1.87077e-07 -3.43878e-07)
(2.51079e-08 -2.07193e-09 -3.46656e-07)
(-4.80304e-08 -3.14737e-09 2.32302e-07)
(-3.33538e-08 -4.95359e-09 3.76912e-09)
(-1.5504e-09 -4.3564e-09 2.04289e-08)
(5.44084e-08 -3.06933e-08 2.59496e-08)
(2.55498e-07 -7.88944e-08 -1.97186e-08)
(-1.6236e-07 -6.32252e-08 -2.28113e-08)
(4.53338e-08 1.71346e-07 -1.25777e-08)
(-7.81308e-08 7.67786e-08 9.891e-08)
(6.58895e-08 1.13038e-07 -6.85846e-08)
(-1.88322e-08 1.2304e-07 1.42907e-09)
(-7.00179e-07 -7.00275e-07 6.53947e-08)
(8.2063e-09 -2.11716e-07 9.66221e-08)
(-6.20477e-09 1.14985e-07 3.94406e-08)
(-1.08259e-07 4.44896e-08 -3.00974e-07)
(2.75231e-07 2.06367e-07 -2.39583e-08)
(-5.80342e-08 3.30465e-09 -3.12852e-07)
(1.14974e-07 -1.36726e-07 3.1407e-07)
(-6.20469e-08 -1.01488e-07 -2.38302e-07)
(-8.08534e-08 2.33291e-07 -4.52167e-07)
(9.04599e-08 1.62323e-07 2.49803e-07)
(1.55089e-07 2.58983e-07 -2.38057e-08)
(-9.13129e-07 2.05797e-08 -1.00244e-07)
(9.00234e-08 2.72524e-07 3.83029e-08)
(-4.15588e-08 1.37364e-07 -1.00542e-07)
(-2.21053e-07 1.10398e-07 4.77448e-08)
(1.21764e-07 -5.85766e-08 2.45546e-07)
(-6.9449e-08 6.48706e-07 -3.89193e-09)
(-2.84689e-07 -2.0186e-07 1.95614e-07)
(1.66669e-08 -2.7374e-07 -2.82146e-07)
(2.1303e-07 3.30792e-09 2.25961e-08)
(-1.48304e-07 2.42156e-07 1.35433e-07)
(4.39665e-09 -1.5446e-08 5.69857e-07)
(2.86343e-08 -5.40991e-08 -1.62859e-07)
(2.93627e-07 -1.04202e-07 -7.09708e-08)
(1.80281e-07 -1.19269e-07 -1.28729e-07)
(7.01825e-08 5.51106e-07 -3.732e-07)
(-4.8486e-09 -1.04657e-07 3.63992e-07)
(8.61388e-08 -1.39103e-07 -5.38499e-08)
(-1.77401e-07 -6.63387e-08 -4.25835e-07)
(-3.00914e-07 3.07514e-07 5.03604e-07)
(-1.5745e-07 1.84253e-08 -4.08988e-07)
(-4.03144e-07 1.82436e-07 7.09075e-07)
(1.51678e-08 2.29888e-07 -2.59598e-07)
(8.22281e-08 5.77379e-08 -5.73397e-08)
(-2.04456e-07 -1.37535e-08 -1.39891e-07)
(-2.10404e-07 -1.16971e-07 -7.44071e-07)
(-9.24905e-08 3.31666e-07 8.89382e-07)
(-1.53787e-07 1.41059e-07 2.51875e-07)
(-7.8819e-08 -1.29499e-08 -9.44905e-07)
(-3.05256e-07 -1.36607e-07 3.16098e-07)
(2.01365e-07 2.7656e-07 -3.68621e-07)
(-1.56961e-07 3.08841e-07 4.35157e-07)
(-3.18363e-07 -7.67645e-09 -4.31801e-08)
(-1.19345e-07 2.77068e-07 -1.59509e-06)
(9.30337e-08 -8.27352e-08 1.53203e-06)
(-2.54582e-07 -8.39092e-08 8.35182e-07)
(-1.85039e-07 -6.0748e-08 -1.06266e-06)
(1.81722e-07 -1.97975e-07 1.17306e-06)
(-2.65559e-08 4.44013e-07 -2.13364e-06)
(-2.56973e-08 -1.31732e-07 -2.09568e-06)
(-1.24091e-06 -4.97699e-07 2.49733e-07)
(-1.86105e-07 -1.36123e-06 -3.7186e-07)
(1.68345e-07 -4.77052e-09 5.97629e-07)
(-1.67456e-07 -7.07355e-08 -3.39015e-07)
(-5.07009e-08 3.8358e-08 -5.29832e-07)
(1.09792e-09 -4.80842e-10 -5.87303e-07)
(6.05416e-08 -3.11086e-08 5.45577e-08)
(2.00914e-07 -3.83742e-07 -6.22826e-09)
(-5.73735e-08 4.24138e-08 -8.5084e-08)
(-2.48566e-07 -3.42888e-07 2.12434e-08)
(8.77178e-08 2.98027e-07 7.31379e-08)
(1.11949e-07 -1.40189e-08 -1.90691e-07)
(-1.58405e-07 -1.71303e-08 6.21496e-08)
(-7.45071e-09 6.76093e-08 3.03219e-08)
(6.68926e-08 -1.68854e-08 -1.08638e-07)
(4.83103e-08 -8.51704e-08 -2.02945e-09)
(1.35482e-07 8.47737e-08 -7.86371e-08)
(-7.03224e-08 1.1459e-07 2.26365e-08)
(-1.32361e-07 -4.9098e-08 7.24806e-08)
(-9.63549e-08 -6.4485e-08 1.50485e-08)
(-3.81093e-08 -2.30868e-07 -1.14274e-07)
(-2.87648e-07 -7.95518e-08 -2.61395e-08)
(-6.79009e-08 3.40905e-08 -7.02006e-08)
(-8.71833e-08 -7.26069e-08 8.41871e-08)
(-1.65402e-07 -3.46401e-07 1.07045e-07)
(3.91817e-09 1.63993e-07 -1.60346e-07)
(-2.92499e-07 -3.46581e-07 1.39776e-08)
(3.78697e-07 1.37091e-07 -6.0977e-08)
(-6.82043e-07 -2.75133e-07 1.01499e-06)
(-1.95051e-07 -1.99761e-07 6.00548e-07)
(-1.43501e-07 1.7986e-07 3.05275e-07)
(1.77359e-07 -1.24759e-07 -1.66128e-07)
(-2.29294e-07 -2.48781e-07 -3.59136e-07)
(1.66665e-07 -2.29623e-07 -4.78814e-08)
(-1.65053e-07 -1.77393e-07 -1.0135e-07)
(4.46196e-07 -1.50198e-07 -1.68135e-07)
(-2.34604e-07 -1.93703e-07 4.09989e-07)
(4.36619e-07 1.45981e-10 -7.92994e-07)
(-7.93033e-08 -3.23009e-07 -2.38305e-07)
(-2.57607e-07 -1.8298e-07 -3.9639e-07)
(-1.25671e-07 9.26642e-08 2.32032e-07)
(-1.19336e-07 -3.12086e-07 9.08117e-07)
(-1.27604e-06 -8.63432e-07 -6.18861e-07)
(1.26183e-07 2.29426e-07 3.10137e-08)
(-3.32937e-07 -1.68752e-08 -2.35641e-08)
(-3.21348e-07 -1.64723e-08 1.18839e-07)
(6.68468e-07 3.01946e-07 1.89227e-07)
(4.4977e-08 1.27717e-07 -2.40391e-07)
(-3.53091e-07 4.29704e-08 2.34935e-07)
(-2.69358e-07 2.55145e-07 4.60193e-08)
(1.52223e-07 -4.97321e-08 -1.77312e-07)
(-2.96382e-07 -1.94167e-07 -3.59799e-07)
(1.47615e-07 3.60555e-08 -5.23323e-07)
(-1.34949e-08 5.95889e-08 -6.67529e-07)
(-3.83804e-08 9.71229e-08 4.19826e-08)
(-3.69204e-08 1.92954e-08 3.13471e-07)
(6.08962e-07 5.2728e-07 -2.81584e-07)
(-8.25849e-09 1.09771e-07 2.40399e-08)
(-2.22533e-07 -1.77995e-07 2.62903e-07)
(-1.42395e-07 2.34155e-07 -1.73593e-07)
(4.42955e-08 5.49855e-08 -2.67158e-07)
(-3.83302e-07 1.88312e-11 -2.35696e-07)
(1.40817e-07 -2.36479e-07 4.51264e-08)
(8.19627e-08 2.45675e-07 -1.06983e-07)
(-2.44827e-07 -1.67252e-07 1.21595e-06)
(-5.64121e-08 -3.04418e-07 3.1726e-07)
(4.04365e-07 2.43729e-07 -2.92441e-07)
(2.97303e-07 2.16097e-07 -6.77806e-07)
(-1.77706e-07 9.5554e-08 1.14089e-06)
(-3.18517e-08 1.1705e-07 -2.8645e-07)
(-2.50195e-08 1.02472e-06 2.71748e-06)
(-2.38834e-07 -6.38527e-07 -1.02973e-07)
(-1.77207e-07 1.6125e-08 7.86903e-07)
(-2.1842e-08 -8.43758e-09 -2.89369e-08)
(-1.50946e-07 -6.83093e-08 1.76715e-06)
(1.49817e-07 5.13546e-08 -1.99463e-06)
(4.42051e-08 7.34339e-09 -2.04694e-06)
(-2.59397e-08 5.98709e-08 -1.29383e-07)
(1.06389e-07 4.9507e-07 9.30587e-08)
(2.29668e-07 4.5135e-08 9.3123e-08)
(-1.96663e-07 -6.34848e-08 -3.51049e-07)
(-8.72065e-08 -1.64369e-07 6.26875e-08)
(1.04752e-06 9.10362e-07 1.01237e-07)
(-8.77818e-09 -5.92374e-09 9.72279e-08)
(2.17157e-07 -3.44906e-08 1.67709e-07)
(1.49086e-07 6.89837e-08 -1.70481e-08)
(1.50498e-07 4.51462e-08 1.25996e-07)
(-1.3121e-07 7.81093e-08 6.89919e-08)
(5.21711e-08 -9.05036e-08 -1.86435e-07)
(-8.05963e-08 -7.68678e-08 -2.54155e-08)
(5.19725e-07 -1.57255e-10 -9.80533e-08)
(-4.57622e-08 7.22109e-08 1.07793e-07)
(-2.05564e-07 -1.14129e-07 -8.20478e-08)
(-5.79912e-09 7.34594e-08 2.67198e-08)
(-2.32443e-08 1.40748e-07 7.45982e-08)
(1.77829e-07 1.38347e-07 6.97803e-08)
(2.20036e-07 4.77245e-07 -7.44211e-09)
(1.82074e-07 -5.176e-07 -2.82383e-09)
(-3.54459e-07 2.06094e-07 3.89875e-08)
(-4.67075e-08 1.57806e-07 -3.97292e-07)
(-3.30993e-07 -1.11373e-07 2.63712e-07)
(5.58576e-08 -8.65159e-08 -3.0734e-07)
(6.36333e-08 -2.82593e-07 1.99145e-08)
(-2.40753e-08 2.24812e-07 -5.69571e-07)
(2.56131e-07 -3.77193e-07 7.78116e-08)
(3.86396e-08 4.96466e-07 5.59028e-07)
(-2.38879e-07 -2.67398e-07 4.50444e-07)
(-1.59301e-07 2.68387e-07 5.00887e-07)
(1.18072e-07 -5.31753e-07 -4.44327e-07)
(2.15808e-07 1.81018e-08 1.37479e-07)
(-2.63882e-07 -5.03528e-08 -3.18289e-07)
(-6.43218e-08 -1.49818e-07 -5.18231e-08)
(-7.5726e-08 -2.64599e-07 5.76939e-07)
(-3.93683e-08 1.45677e-08 -5.92203e-07)
(-1.54661e-07 -2.68291e-07 -8.49582e-08)
(4.16745e-07 -5.4438e-07 -3.15698e-07)
(-1.11284e-06 -5.23889e-07 -1.5758e-07)
(1.1884e-07 -2.0637e-07 2.99566e-07)
(-7.39983e-08 -2.60991e-07 2.86455e-07)
(-1.37496e-07 -5.35915e-07 -3.27291e-07)
(4.01143e-08 -3.16339e-07 1.83808e-08)
(1.20055e-07 -6.15323e-08 -7.85871e-08)
(-6.48707e-07 -1.47176e-07 -2.58946e-08)
(4.95149e-07 -2.04739e-07 1.9184e-08)
(1.40042e-07 4.07505e-08 -2.70291e-07)
(-1.20051e-07 -1.9817e-07 1.86318e-07)
(-3.08487e-08 -1.00583e-07 -2.11896e-08)
(1.1982e-07 1.58708e-07 2.58881e-07)
(1.29199e-07 2.08132e-07 4.92504e-07)
(7.0792e-07 -3.4849e-07 -8.7284e-08)
(-3.26534e-07 -6.34731e-07 -3.86515e-07)
(3.40062e-08 -1.69848e-08 -1.85548e-07)
(-9.3085e-08 3.43437e-07 -1.54323e-08)
(1.05631e-07 3.32929e-07 4.8205e-07)
(-5.57735e-07 -3.97383e-07 1.28223e-06)
(3.26067e-07 1.24364e-07 -1.17609e-06)
(-1.33247e-07 -4.24866e-07 9.25627e-07)
(1.80424e-08 -4.99445e-07 -1.87624e-07)
(1.81022e-07 8.44794e-08 -1.48992e-06)
(1.31493e-08 -8.13277e-08 2.66255e-06)
(4.42472e-08 5.61343e-08 -1.16183e-07)
(-1.48684e-07 2.05514e-07 1.13253e-06)
(-6.66379e-07 -3.07197e-07 8.26303e-07)
(1.11005e-07 -2.0691e-07 1.66627e-07)
(7.93042e-08 -2.12114e-07 4.84442e-07)
(5.12309e-07 -1.2996e-07 -6.42968e-09)
(-3.5339e-08 2.7303e-08 4.88338e-07)
(8.95118e-08 2.08086e-08 -4.36389e-07)
(1.86994e-07 2.46171e-07 4.24405e-08)
(2.08754e-07 -1.21138e-07 -1.93643e-07)
(7.77079e-09 -1.75542e-07 -1.35835e-07)
(-9.77009e-09 -1.65807e-07 -8.77443e-09)
(1.62447e-07 -1.26653e-07 -8.86229e-08)
(7.30673e-08 -7.57942e-08 -8.88746e-08)
(8.39343e-08 1.08072e-07 -5.01953e-08)
(3.79413e-09 8.02928e-08 -3.45791e-08)
(-9.22527e-08 8.17447e-08 3.03243e-07)
(3.61924e-08 -1.09282e-07 2.30202e-07)
(-1.26837e-07 -7.84653e-08 8.36731e-09)
(4.85412e-08 -1.35192e-07 8.25275e-08)
(1.16951e-07 -5.34112e-08 1.2803e-07)
(-1.16841e-09 5.05178e-08 5.81902e-08)
(-1.76859e-07 -1.20967e-07 -8.90494e-08)
(1.56363e-07 4.41984e-07 1.24053e-08)
(5.96968e-08 -2.96656e-07 1.96962e-07)
(1.62299e-07 1.59674e-08 -2.33242e-07)
(2.38692e-07 -5.54192e-07 1.51959e-07)
(-7.59869e-08 9.39905e-08 -5.89743e-08)
(5.06806e-10 1.23541e-07 3.12919e-07)
(-1.57397e-07 3.71956e-07 -1.89618e-08)
(-2.77872e-09 -3.6137e-07 6.44823e-08)
(2.35915e-07 5.99424e-08 -4.02475e-08)
(-1.89776e-07 -1.23219e-07 -1.57401e-07)
(2.01262e-07 -1.5405e-06 3.31859e-07)
(7.58218e-09 -1.13294e-07 1.98147e-08)
(-1.85835e-07 1.93623e-07 1.77858e-08)
(2.05861e-08 -5.03728e-07 7.84542e-08)
(-1.16493e-07 2.42634e-07 6.41799e-07)
(-6.12771e-09 -6.4175e-08 -3.00848e-07)
(9.63092e-08 -1.18406e-08 -3.72939e-07)
(2.90856e-07 3.793e-07 -1.24309e-07)
(-3.4597e-07 1.39505e-07 4.27683e-09)
(-6.03579e-08 1.86587e-07 -2.5718e-07)
(-3.24409e-07 4.93139e-08 1.31352e-07)
(-5.46506e-08 -7.96339e-07 2.14103e-08)
(-1.79329e-07 3.59631e-07 -6.57177e-07)
(-1.76316e-07 3.58128e-07 9.37398e-08)
(2.14325e-08 -1.49919e-07 3.95523e-07)
(8.11329e-08 -3.18091e-08 -7.51835e-07)
(-2.66064e-08 -5.22212e-08 1.61792e-07)
(-3.37493e-08 2.80908e-08 8.25793e-08)
(2.76193e-07 1.49898e-07 1.9684e-07)
(-1.79393e-07 -5.75755e-07 -3.0532e-07)
(2.47684e-07 -3.56601e-08 -1.4948e-07)
(-2.24134e-07 -2.29179e-09 2.58137e-08)
(-5.07429e-07 -1.8825e-07 -3.63999e-07)
(7.74034e-08 1.13172e-07 3.69109e-08)
(3.35796e-07 -1.47041e-07 -6.24516e-07)
(-9.59836e-08 -9.00571e-08 1.44962e-07)
(2.1592e-07 6.44505e-09 6.04005e-07)
(3.06225e-07 2.63613e-07 4.00858e-07)
(-1.87255e-07 4.90301e-08 3.55128e-07)
(3.2243e-07 -1.38325e-08 1.92168e-06)
(-2.37473e-07 -6.50291e-08 2.00707e-07)
(-1.40164e-07 -2.84998e-07 2.80261e-06)
(-2.07125e-07 7.20319e-08 1.94255e-07)
(1.32822e-07 -7.63822e-08 5.72476e-07)
(-1.50337e-07 -1.48254e-07 9.99199e-07)
(-2.06284e-07 -5.43525e-08 -1.81028e-06)
(1.62876e-08 -3.04008e-09 -8.47861e-07)
(-1.39301e-07 -6.17894e-08 -1.31283e-06)
(-9.97133e-07 2.56708e-08 -9.86415e-07)
(-6.0922e-07 2.03739e-07 -3.54335e-08)
(1.68002e-07 -3.45231e-07 -7.6516e-07)
(-3.5532e-08 5.95537e-08 -1.71332e-06)
(1.91219e-07 8.70861e-08 1.01757e-06)
(-2.15746e-07 1.82208e-07 6.59378e-07)
(4.55529e-07 -1.00001e-07 -5.43484e-08)
(-7.46075e-08 1.38906e-07 -3.12786e-07)
(2.9773e-07 -1.91047e-07 1.61119e-06)
(-8.20692e-07 1.38931e-07 -3.44604e-07)
(-2.95882e-07 1.66158e-07 2.4948e-07)
(2.9597e-07 1.22206e-07 3.80139e-07)
(-3.9715e-07 3.88649e-08 -3.28679e-08)
(6.45873e-08 -5.36739e-08 3.47751e-07)
(8.52148e-08 -5.98425e-08 -1.31572e-06)
(-5.07849e-07 7.4849e-08 3.07663e-07)
(1.90012e-08 1.64163e-07 1.43279e-07)