/*--------------------------------*- C++ -*----------------------------------*\
  =========                 |
  \\      /  F ield         | OpenFOAM: The Open Source CFD Toolbox
   \\    /   O peration     | Website:  https://openfoam.org
    \\  /    A nd           | Version:  8
     \\/     M anipulation  |
\*---------------------------------------------------------------------------*/
FoamFile
{
    version     2.0;
    format      ascii;
    class       vectorField;
    location    "0/lagrangian/kinematicCloud";
    object      U;
}
// * * * * * * * * * * * * * * * * * * * * * * * * * * * * * * * * * * * * * //


3300
(
(-5.35806e-06 -4.56802e-05 -3.86925e-05)
(-0.000120044 -0.0011202 0.00447492)
(-6.54596e-06 0.000608939 5.93334e-05)
(-0.000301323 0.000776315 0.000466028)
(-0.000210864 0.00106001 1.03467e-05)
(0.0171601 -0.00444455 -0.00144282)
(-0.000295409 -3.31027e-05 -5.72426e-05)
(0.000245069 -0.000728913 0.000221571)
(0.000191399 -0.000750028 0.00392617)
(0.000488645 -0.00135822 0.000505554)
(0.000218994 -0.00129482 -0.000191703)
(-8.29822e-05 -0.000811901 -0.000127103)
(-0.000170121 -0.000242436 7.26486e-05)
(-0.000278854 -0.000759346 -0.000419219)
(0.000127902 -0.000912666 0.000368117)
(0.000151572 -0.000639896 -0.000378918)
(0.000407061 0.000161632 9.97906e-05)
(0.000144163 0.000285689 4.69581e-05)
(-0.000128268 0.000134633 -9.31224e-05)
(2.09449e-05 -0.000173063 -1.97924e-06)
(-6.10319e-05 -0.000196594 -2.55054e-05)
(-0.000268548 -0.000596829 -0.000191135)
(-0.000395722 -0.000410659 4.30649e-05)
(-0.000346079 -0.00294465 4.24919e-05)
(-0.000670982 -0.00014415 0.000460817)
(-0.0223869 0.00110608 0.000405866)
(-0.0297034 -0.0197096 0.000491496)
(-0.0956906 -0.0668572 -0.00652385)
(-0.0388028 -0.0199025 -0.00424122)
(0.000120466 -0.0203488 -0.00580643)
(0.00175911 -0.0220875 0.000524931)
(0.00159107 -0.0219211 -0.0111024)
(-0.00057018 -0.0211682 0.000276782)
(-0.000553028 -0.0210991 1.74391e-05)
(2.00621e-05 1.74757e-05 3.31777e-05)
(6.66931e-06 9.99608e-06 2.68586e-05)
(2.28158e-05 -1.25595e-05 4.95698e-06)
(5.25007e-05 2.59319e-05 -1.31004e-05)
(-1.96979e-07 7.20728e-05 -2.94533e-05)
(4.85612e-05 3.44916e-05 -5.19446e-05)
(0.000524783 -3.34633e-05 0.0035349)
(0.000186304 8.56984e-05 -1.66891e-05)
(0.000138362 8.02801e-05 -3.71711e-05)
(2.80424e-05 -7.34005e-06 -0.000414317)
(2.34207e-05 3.7223e-05 -3.1509e-05)
(9.14584e-06 -5.6779e-07 -1.94682e-05)
(8.62697e-06 2.03886e-06 -4.15891e-05)
(1.78095e-05 -7.35879e-06 -1.80852e-05)
(4.16046e-05 -4.17698e-05 -1.07604e-05)
(0.000301022 4.12824e-05 -4.69217e-05)
(-0.000643062 -5.72895e-05 0.000187824)
(5.9626e-05 0.000114049 -0.000497159)
(-2.16136e-05 -0.000813661 0.000574069)
(8.20769e-05 -0.000133483 9.31669e-06)
(-0.000346674 -0.000176016 3.4221e-05)
(-8.98283e-05 -8.3598e-05 0.000128157)
(-4.53741e-05 0.000159313 -3.08122e-05)
(-0.000807879 -0.000425261 0.0146793)
(0.00293262 0.000347307 -3.75756e-05)
(-0.000296268 0.000281228 -2.30496e-05)
(-0.0016711 0.000495883 4.08624e-05)
(0.00246919 0.000307231 -0.000840488)
(-6.25128e-06 -0.000328468 -5.3935e-05)
(-3.51965e-05 -6.94067e-05 -5.44653e-05)
(-0.000388177 0.000249324 -0.0050737)
(-8.67502e-05 -2.82598e-05 -0.00548579)
(-2.65701e-05 -0.000823336 -0.00178371)
(0.000611825 0.000571461 -0.00220761)
(-0.000286539 -0.000501779 -0.000191189)
(-0.000342049 -0.00126508 1.80528e-05)
(0.00119986 -0.000813755 -0.00137524)
(0.000696737 -0.00107074 -4.31231e-05)
(-0.000227743 -0.000907726 -7.53304e-05)
(-0.000285051 -0.00144953 -1.33551e-05)
(0.000194949 -0.00273615 0.0168295)
(9.70801e-05 -0.0033114 0.000484003)
(-0.000259262 -0.00334729 -0.000386691)
(-0.00147825 -0.00300774 8.15458e-05)
(-7.06371e-06 -0.000790118 0.000169827)
(0.000341276 -0.000536421 0.000109166)
(0.000135933 -0.00116554 5.42753e-07)
(0.000334543 -0.00160528 -0.000391591)
(0.000698225 0.000519095 -0.000854873)
(6.66727e-05 -0.00019657 0.00176743)
(-0.00023794 -0.000192261 -0.000245914)
(0.000468036 -0.000313113 -2.50197e-05)
(0.000345853 -0.000190845 5.0738e-05)
(0.00068178 -2.70689e-05 8.83889e-05)
(2.8827e-05 -0.00321258 8.74011e-05)
(-0.0219812 -0.0169695 -0.00716105)
(-0.0306285 -0.0167393 -0.00493944)
(0.00103823 -0.00127321 -0.000154128)
(0.0049693 0.000887915 -0.000596957)
(-0.000455383 -0.0187238 0.000264567)
(-4.59214e-05 -0.0189507 0.000455699)
(-0.00878445 -0.0202278 -0.000138163)
(0.00033053 -0.0186 0.0027861)
(-0.00995784 -0.0188706 -0.000209853)
(-0.00513278 -0.0210389 -0.000910704)
(-0.00604156 -0.0193582 8.65819e-05)
(-0.000454531 -0.0188592 -0.000165277)
(-0.00190599 -0.0192493 -0.00105093)
(-0.123941 -0.0182916 -6.56391e-06)
(0.188753 -0.121097 -2.06458e-05)
(-0.0886694 -0.149758 -0.000194548)
(-8.64538e-06 -7.28247e-06 3.60462e-05)
(3.31042e-05 -1.3004e-05 6.0876e-05)
(-4.56746e-06 6.18974e-07 1.59669e-05)
(-4.18071e-05 2.53534e-05 3.95199e-05)
(-5.49269e-05 7.92453e-06 -3.82394e-06)
(3.88036e-05 -5.55845e-05 -3.20614e-05)
(5.77482e-05 8.66669e-05 6.16861e-06)
(3.63444e-05 -0.000154801 -4.58136e-05)
(5.34229e-05 -7.93871e-05 -0.00400341)
(0.000130034 -0.000480419 0.000616264)
(8.75607e-05 0.000140027 4.63976e-05)
(-4.35037e-05 0.00026158 0.00297236)
(-0.000134131 1.14651e-05 0.00669231)
(3.74051e-05 -2.55028e-06 2.49573e-05)
(-0.000260402 0.00042623 5.69039e-05)
(-1.77532e-06 -2.99999e-05 3.7736e-06)
(3.24565e-05 -8.83876e-05 0.000105088)
(0.000154403 -0.000268789 7.41046e-05)
(0.000259387 -0.000151822 -1.94251e-05)
(0.000114493 -0.000230956 -2.23136e-05)
(0.000158464 0.000192005 0.000141674)
(-3.44933e-05 0.000210503 -9.32197e-06)
(-0.00030822 1.49043e-05 7.41574e-05)
(-0.000624108 6.14077e-05 -0.000103746)
(0.000443583 -0.000553282 0.000620675)
(0.000569241 -0.00169273 -0.000113558)
(-0.000563173 -0.00261728 1.91897e-05)
(-0.00218446 -0.00207226 -3.15577e-05)
(8.91337e-05 -0.00201582 0.000251821)
(-0.000564551 -0.00147857 -0.00393057)
(-0.000392588 -0.000738481 -0.00658189)
(-0.000830915 -0.00154022 0.00087971)
(-0.000449361 0.000559613 1.98026e-05)
(0.000919693 -9.77518e-05 1.61818e-06)
(0.00121208 -0.00149036 4.73151e-05)
(-0.000484988 -0.000715404 -5.63298e-05)
(0.000111986 -0.00102843 3.01786e-05)
(0.000105692 -0.00042035 -0.000986177)
(-0.00047399 -0.000865986 0.00014985)
(0.00048763 -0.000562927 -0.00784832)
(0.000322009 -0.000465225 1.32075e-05)
(-8.59354e-07 -0.00142482 8.50384e-05)
(-0.000134022 -0.00135886 -8.11399e-05)
(0.000155361 -0.00132892 -1.33163e-05)
(0.000742001 -0.0010475 0.00149597)
(0.00142296 -0.000973648 -0.00160111)
(-0.00106959 -0.000746894 -0.000170485)
(0.000330836 -0.000201526 -0.000313193)
(0.000143742 -0.00100527 0.000435742)
(0.000348459 -0.000488747 -6.39663e-05)
(0.000434756 -0.00196661 -5.30982e-05)
(-1.39688e-05 -0.0018976 0.00231003)
(0.00217566 -0.00196493 2.50463e-06)
(-0.000265619 -0.00023806 3.01251e-05)
(-0.000439055 -0.000505231 -0.00290207)
(0.00025888 -0.000301256 -0.00327606)
(0.000973665 -0.000151348 -0.000196533)
(0.00104536 0.000257618 0.000783044)
(-1.5954e-05 -0.000706633 -0.000484814)
(-0.000102788 -0.000134832 -5.79696e-06)
(-0.00123558 -0.00137216 -0.000195372)
(-0.00106692 -0.00145205 -0.00025774)
(0.00484787 0.00203607 0.000297088)
(0.00433349 0.000977543 -0.0020662)
(0.00391203 0.00234754 0.00247702)
(0.00286239 0.0022642 0.00540032)
(-0.00039962 -0.0212442 0.000714384)
(-0.00877008 -0.0177859 9.17811e-05)
(-0.00940863 -0.0178401 -0.00724643)
(-0.00896407 -0.0175994 -6.37078e-05)
(-0.00699522 -0.01599 0.000226601)
(-2.63625e-05 2.60154e-06 2.17892e-05)
(-5.20384e-06 1.09631e-05 4.31298e-05)
(7.90191e-06 -4.04342e-05 2.71637e-05)
(5.8031e-05 -3.18283e-05 2.6558e-05)
(8.15954e-05 -1.88105e-05 1.06713e-05)
(0.000128921 -4.00122e-05 1.55895e-05)
(2.2278e-05 -6.4389e-05 6.40803e-05)
(-4.27194e-05 -5.71255e-05 0.00041308)
(-9.63907e-05 -7.91004e-05 -7.84728e-05)
(-8.28022e-05 -0.000151733 -6.12697e-05)
(4.77149e-05 -8.18708e-05 -4.66805e-06)
(7.26702e-05 -0.000181786 -1.35899e-06)
(9.63099e-05 -0.000231118 -0.000204433)
(-6.89701e-05 -0.000326292 0.000124474)
(-0.000457925 -0.000338506 -2.99417e-05)
(0.000463694 0.000241387 -0.000311)
(-4.55717e-05 0.000376553 0.000586977)
(-0.000142658 -9.39989e-05 2.34011e-05)
(0.000372414 0.00012289 -2.15243e-05)
(-1.27021e-05 6.67207e-05 -5.54564e-06)
(7.27938e-06 -0.00013084 3.82819e-05)
(-0.000116268 -0.000258178 -7.73777e-05)
(0.000155421 4.67563e-05 8.7703e-05)
(0.00145942 -0.000820432 -0.000186689)
(0.000789536 -0.000831631 6.49487e-05)
(0.000215802 -0.00132243 -2.16411e-05)
(-9.35188e-05 -0.00134746 -0.000121399)
(-0.00253934 -0.00124152 -0.000182736)
(-0.000980864 -0.00219888 -1.1528e-05)
(-0.000941356 -0.00211565 -4.38741e-05)
(-0.00167677 -0.00239557 0.000140056)
(-0.000828564 -0.000836443 -0.00017498)
(-0.00117291 -0.000950363 -0.000300029)
(-0.000886408 -0.0012423 5.42085e-05)
(0.00868048 -0.00270896 0.00422674)
(-0.00131435 0.000434218 0.0051445)
(-0.000529142 -0.000122994 2.46121e-05)
(0.000203789 -2.48973e-05 0.00019519)
(-0.000241004 -0.000193738 -0.000129207)
(0.000270455 -0.000507365 -0.000134512)
(0.000120171 0.000136089 -4.451e-05)
(0.00010359 -0.000285866 7.56145e-05)
(0.000476231 -6.33822e-05 -0.000317395)
(0.00031416 -0.000172746 7.00353e-05)
(-0.00113088 -0.000692646 0.000113988)
(-0.0014988 -0.000739613 -0.00777084)
(-0.000505546 -0.000909679 -0.000204089)
(0.00052779 -0.000781295 -0.000121714)
(0.000323735 -0.00131398 -0.000719664)
(0.000579161 -0.00125343 -4.32745e-05)
(0.000132873 -0.00110897 -0.000222257)
(-6.67229e-05 -0.000627542 6.54565e-05)
(-4.14278e-05 -0.000128347 8.40124e-05)
(-0.00016939 9.22383e-05 2.04088e-06)
(-0.000813392 -0.000116896 -0.00013159)
(-0.000289156 -0.00079059 0.000239328)
(0.000178845 -0.000646301 0.000277512)
(0.000103925 -0.000259741 -3.8774e-05)
(-0.000171585 -0.00045747 -0.000344123)
(-0.000127445 -0.000477195 0.000132468)
(0.000806907 5.6149e-05 0.000639291)
(0.00350165 0.00142319 -0.00011825)
(0.00438768 0.00215262 2.21817e-05)
(0.00399265 0.00160892 7.76004e-05)
(0.00541807 0.00174033 2.14301e-05)
(0.00684014 0.00232965 -9.65384e-05)
(-0.00225479 -0.00233169 -0.000420185)
(-0.0103891 -0.00570026 -0.00520406)
(-0.00841843 -0.0168144 -0.00435202)
(-0.00894175 -0.00364253 -0.00352808)
(-0.0144262 -0.0153736 -0.000294599)
(3.76535e-06 1.37461e-06 1.08305e-05)
(8.75492e-06 1.08171e-05 -9.24991e-06)
(-4.71929e-06 -4.66192e-05 5.11338e-05)
(0.0238609 -0.00287322 -0.000897678)
(0.000109829 -0.000154065 6.94257e-05)
(0.000136487 -0.000109165 -9.0277e-06)
(2.27024e-05 -9.42759e-06 8.24991e-06)
(4.88908e-05 -0.000123655 2.50923e-05)
(9.51657e-06 -0.000121099 1.63627e-05)
(-0.000107846 -1.26305e-06 -2.56272e-05)
(-0.000181771 -6.34544e-05 -0.000553887)
(6.77675e-05 -0.000156022 5.74588e-06)
(0.000135345 -0.000158475 -0.0023399)
(-0.000111504 -3.55737e-05 -7.47128e-05)
(-0.000156371 -0.000112704 -9.1048e-05)
(-0.000274984 -2.1565e-05 7.74784e-05)
(-0.000697938 -0.000258292 -2.09607e-06)
(-0.000118214 -0.000244885 7.44959e-05)
(9.49465e-05 -0.000747894 8.71877e-05)
(0.000458243 5.50899e-05 -0.00466527)
(-0.000103665 -0.000269838 5.61151e-05)
(0.000163014 -0.000452592 -0.000405657)
(-0.000301728 -8.74343e-05 4.39932e-05)
(-0.00010046 6.6964e-06 0.000121258)
(0.00020862 2.85917e-05 -2.96639e-05)
(0.00029405 0.000276508 -0.000406635)
(-0.00267385 -0.00150582 -0.000229683)
(-0.00197632 -0.00243051 0.00780158)
(-0.000992537 -0.00259938 -0.000275829)
(-0.000427044 -0.00239783 0.000358814)
(-0.000745952 -0.000991658 0.000187491)
(-0.000389729 -0.00038311 -5.41538e-05)
(-6.90772e-05 6.22467e-05 -0.00202721)
(0.00111348 0.000162323 -0.00395333)
(-0.000154474 0.000432704 -0.000161001)
(-0.00030084 0.00037119 0.0107402)
(0.000460212 0.000322199 -0.00916529)
(0.000236416 0.00014608 1.02825e-05)
(6.5013e-05 1.53261e-05 -0.000101861)
(-0.000205589 -0.000257783 2.57301e-05)
(0.000391544 -0.000256631 1.11522e-05)
(0.000435763 -0.000365067 -0.000622953)
(0.000501844 -0.000226301 4.95653e-05)
(0.000554319 0.000179639 0.000663145)
(-0.00116725 0.000215745 0.00533774)
(-0.000645753 -0.00158664 7.69052e-05)
(-0.00069949 -0.00156257 -1.59261e-05)
(0.000225929 -0.000969877 -1.6523e-06)
(0.000220013 -0.00100263 5.77076e-06)
(0.000382109 -0.000948082 -7.03451e-05)
(8.67997e-05 -0.000671183 -2.33511e-05)
(2.21006e-06 -0.000683264 0.000481915)
(0.000154789 -0.000615974 9.51619e-05)
(-0.00104261 -0.00141602 0.000471576)
(0.000923195 -0.000516562 -2.56956e-05)
(-0.000701109 0.000271488 -0.000141119)
(0.00023075 -1.57469e-05 0.000163366)
(-0.000361627 -0.00040574 -0.00111082)
(0.000270526 -0.000237654 -0.000357085)
(0.00161723 0.000372345 0.000259383)
(0.00322216 0.00152645 0.000451189)
(0.00447054 0.00155817 -0.000833554)
(0.00419649 0.00124019 -0.000717718)
(0.00501789 0.00108412 0.000669264)
(0.0052776 0.000983987 0.00115181)
(0.00451885 -0.000394899 -0.000670062)
(-9.49875e-05 -0.00263632 0.00172601)
(-0.00848116 -0.0069672 -0.00186626)
(-0.012569 -0.00437811 -5.6072e-05)
(-0.00668331 -0.00406189 -0.0010989)
(-0.0208667 -0.0114954 1.89495e-05)
(-0.000577336 0.000487016 0.000307377)
(-0.000740796 0.000833524 0.00112704)
(4.78326e-05 -2.47178e-06 2.15351e-06)
(3.42264e-05 1.95403e-05 -3.34467e-06)
(2.38761e-05 -4.74637e-05 3.13631e-05)
(6.76958e-05 -5.16534e-05 3.9157e-05)
(5.35137e-05 -8.13446e-05 1.45085e-05)
(-2.13764e-05 2.81828e-05 2.09826e-05)
(-0.000109399 1.59019e-05 -2.92649e-05)
(-8.30999e-05 2.8333e-05 -5.27499e-05)
(-0.000108597 -1.4822e-05 3.28277e-05)
(0.000140986 -5.70746e-05 -1.60827e-06)
(0.000107668 -6.087e-05 -5.81581e-05)
(-7.29851e-05 -0.000158183 8.78552e-06)
(-2.7404e-05 -0.000149232 -2.39236e-05)
(0.000118599 -0.000127222 -2.52155e-06)
(0.00022162 -7.37207e-05 -1.81144e-05)
(0.000194489 -8.47943e-05 -3.91419e-06)
(-0.000161927 -0.000182945 -8.10414e-05)
(-0.000276414 -0.000168193 1.40121e-05)
(0.000101379 -3.09171e-06 3.88492e-05)
(-0.000382227 0.000145231 1.79911e-05)
(6.76708e-05 -0.00038627 -3.70396e-05)
(-0.000261297 -3.37474e-05 -0.00056603)
(0.000113549 -1.11016e-05 0.000528148)
(0.000294543 9.91892e-05 9.99952e-05)
(-0.001304 0.000512317 0.00283324)
(-0.000220601 -0.000130248 -2.07898e-05)
(-0.000927368 -0.000517399 -0.000474432)
(-0.0014933 -0.00199151 -0.000237762)
(-0.000201293 -0.000204795 -1.64538e-05)
(-0.000730641 0.000185303 0.000473345)
(-4.36461e-05 -6.47017e-06 -8.88164e-05)
(-0.000205431 7.58202e-05 -3.51295e-06)
(0.000139466 0.000280961 0.000216114)
(-0.000244485 9.44918e-05 7.7364e-05)
(-6.79259e-05 4.17273e-05 3.16636e-05)
(-0.000244467 -6.8562e-05 -0.000241869)
(8.49019e-06 -0.000136282 -4.8467e-05)
(-3.0376e-05 -0.000127762 -1.80982e-05)
(0.000377336 -0.0004586 2.34786e-05)
(5.67904e-06 -0.000410825 0.00131495)
(0.000652952 -0.0010557 -3.57449e-05)
(0.00110511 -0.000847522 0.000236292)
(0.000596931 -0.000758167 5.04199e-05)
(-0.000176401 -0.00141778 -4.6349e-05)
(-0.000625591 -0.00133275 8.00415e-05)
(-3.24856e-05 -0.00145518 0.00215366)
(-2.25849e-05 -0.00135099 9.90617e-05)
(9.00338e-05 -0.000992378 -1.21777e-05)
(0.000196413 -0.000875246 9.23355e-06)
(2.45887e-05 -0.000655603 -0.000138614)
(8.5406e-05 -0.000913653 5.27484e-05)
(0.000560349 -0.000690209 -0.000122881)
(-0.000657436 -0.000907043 0.000117004)
(-0.000314468 -0.00028593 -1.21074e-05)
(0.000493068 0.000387235 -0.000303823)
(-9.8829e-05 2.77397e-05 -0.000149039)
(-0.00048392 6.92835e-05 0.00091161)
(0.00183102 0.00152455 -0.000476847)
(0.00450297 0.00222825 0.00115986)
(0.00502291 0.00193234 -0.000744528)
(0.00505682 0.00139691 -0.000635162)
(0.00520573 0.000618914 0.000302964)
(0.00541252 0.000639104 -0.00179111)
(0.00516527 0.00157555 -0.00083565)
(-0.00253238 0.000823606 -0.00512503)
(-0.00592693 -0.000608682 -0.00173299)
(-0.00192373 -0.000117026 0.00027171)
(-0.0138921 -0.00586388 -0.000173635)
(-0.042631 -0.0154068 -0.000200756)
(-0.000206796 -0.000113776 -0.000395492)
(9.94581e-05 -4.14644e-05 -6.11981e-05)
(-0.000175572 0.000420683 -0.000672444)
(0.000402308 -0.000216278 9.74133e-05)
(4.95302e-05 2.91477e-05 2.13754e-05)
(3.84846e-05 4.38107e-05 -8.48872e-06)
(-0.000113404 2.58195e-06 -0.0052967)
(-5.61257e-05 5.42439e-06 -3.38998e-06)
(-3.56734e-05 7.13601e-06 2.22629e-05)
(-7.63783e-05 3.60826e-06 -0.000374612)
(5.6717e-06 -5.29542e-05 -0.000134709)
(-0.000277254 0.000107746 -0.00621741)
(0.000133067 -9.59655e-05 5.0369e-05)
(5.47036e-05 -7.62595e-05 -3.41066e-05)
(4.33384e-05 -8.08565e-05 3.40078e-05)
(-4.5428e-05 -0.000152108 -1.41116e-05)
(0.00018201 -0.000217946 9.12829e-05)
(0.000163154 -0.000123305 2.16852e-05)
(0.000216057 -8.51611e-05 3.62441e-05)
(-3.83389e-06 -7.25967e-05 -2.86178e-07)
(-8.03864e-05 -3.45637e-05 -0.00256097)
(-0.000715686 -0.000137497 -0.000129504)
(-0.000793154 0.000309526 0.000242619)
(-0.000199969 -1.61941e-05 0.000229273)
(-0.000271294 8.76754e-05 -2.30206e-05)
(-0.000138408 0.000177623 3.03837e-05)
(0.000138848 -7.2954e-06 8.19593e-05)
(-4.59358e-05 0.000148975 -3.42148e-05)
(-0.000296644 6.68909e-05 -3.52676e-05)
(-0.000128341 -0.000111018 -0.000234923)
(-0.00028339 -0.000207353 0.000245174)
(-0.000821036 0.000112458 8.90316e-05)
(3.91155e-05 0.000542344 3.69971e-05)
(0.000801675 0.000384785 2.64902e-05)
(-0.000241761 -0.000891664 0.000266407)
(-0.000211366 -0.00107955 1.41141e-05)
(0.000117736 -0.00161303 -9.97533e-05)
(-9.98579e-05 -5.12491e-05 0.000526679)
(5.10678e-05 2.55081e-05 6.63291e-05)
(7.58981e-05 -0.000156866 -1.05032e-05)
(0.000150658 -0.000700418 -3.53338e-07)
(6.55106e-05 -0.00103742 -3.15502e-05)
(0.000384521 -0.00130087 -0.000567945)
(0.00016337 -0.00145573 -0.000548469)
(0.000370343 -0.00123828 1.87707e-05)
(-0.000921403 -0.0015817 6.13225e-05)
(-7.22505e-05 -0.00132587 1.45195e-05)
(-0.000356384 -0.00146108 -5.88564e-07)
(-0.000257711 -0.00148688 -9.40359e-05)
(8.7608e-05 -0.00123503 7.5595e-06)
(0.000333343 -0.00127413 -2.38948e-05)
(6.41845e-05 -0.000803026 -5.67878e-06)
(4.8991e-05 -0.000499875 8.78431e-06)
(-3.23453e-05 -0.000483141 -0.000228654)
(-0.000742333 -0.000298817 0.000222184)
(-0.000140683 -0.00057251 0.000145749)
(-0.000251598 -0.000414254 6.77766e-05)
(-7.14273e-05 -0.000272467 6.74966e-05)
(-0.000171143 -0.00016784 0.00090253)
(0.000553702 0.000139608 0.000161847)
(0.00480991 0.00223729 -0.00110119)
(0.00209909 0.000637203 0.00332985)
(0.00498655 0.000670284 -0.00628414)
(0.00519095 0.000680702 -0.0012042)
(0.00443439 7.92513e-05 -0.00204926)
(0.00499376 0.000594078 -4.53047e-05)
(0.00426088 0.00129011 -0.00656115)
(-0.00177877 -0.000399577 -0.00176455)
(0.00280231 -0.00378777 4.57545e-05)
(-0.00165636 -0.00492395 -0.00060979)
(-0.0100784 -0.00942318 -5.48453e-05)
(-3.32447e-06 -1.4163e-05 -6.49802e-05)
(8.77141e-05 -6.3567e-05 -7.64515e-07)
(0.000324641 -0.000560198 -0.00680479)
(0.000132998 -4.09927e-05 -1.52204e-05)
(0.000224392 0.000845498 -0.0018426)
(8.28202e-05 5.12774e-05 0.00015596)
(4.09546e-05 1.96265e-05 5.85045e-06)
(2.28287e-05 -1.7625e-05 4.84711e-06)
(-6.22572e-06 -2.22526e-05 -3.62249e-06)
(-6.01409e-05 -6.06159e-05 2.80191e-05)
(-1.05351e-05 -6.88234e-05 -2.74409e-05)
(4.03271e-05 -9.73663e-05 -1.57426e-05)
(-1.11356e-05 -6.75156e-05 6.20776e-05)
(6.10624e-05 -6.18523e-05 5.86542e-07)
(7.44368e-05 -2.78454e-05 -0.000210579)
(1.98009e-05 -3.40584e-05 5.13209e-05)
(-0.00024096 -0.000523682 -0.00586487)
(0.000184523 -8.24772e-05 -2.83374e-05)
(0.000578896 -0.000196312 0.0040762)
(0.000433823 7.5667e-05 -0.000103041)
(0.000284282 -0.000167714 -0.000122011)
(-0.000181529 -0.000143566 8.21244e-05)
(5.51266e-05 2.04802e-05 0.00406229)
(-0.000275472 -3.72967e-05 -4.38371e-05)
(-0.000117871 2.38805e-05 -5.5344e-05)
(-0.000129691 4.75162e-05 3.62627e-05)
(-0.000151633 0.000106208 2.0497e-05)
(-0.000128642 6.45069e-05 -3.41012e-05)
(-0.000280637 3.89763e-05 -2.81964e-05)
(-0.000275552 4.76644e-05 3.55142e-05)
(-0.000955809 -0.000109916 -0.000209667)
(-0.00121692 -0.000329782 -7.33461e-05)
(-0.000437999 -0.000226881 -7.97604e-05)
(-0.000367221 -0.00052868 5.64404e-05)
(-0.000218249 -0.000597987 5.34019e-05)
(-0.00027705 -0.00132419 -0.00511212)
(0.000736242 -0.00156763 0.000583979)
(-0.000194475 0.000138319 0.00821054)
(0.000145005 -0.000124514 -1.21199e-05)
(0.000115481 -0.000450586 0.000136543)
(0.000130292 -0.000676073 5.88588e-05)
(0.000166539 -0.000911165 -0.000108622)
(0.000195921 -0.00123529 -4.38538e-05)
(0.000191344 -0.00132154 0.00124663)
(0.000133465 -0.00136504 6.34066e-06)
(-3.65636e-05 -0.00123961 3.18026e-05)
(0.000119605 -0.00131322 -3.95805e-05)
(-0.000202759 -0.00126194 6.63048e-05)
(-0.000139517 -0.00121231 1.81202e-05)
(0.000238306 -0.00110309 3.24619e-05)
(0.000270757 -0.000871691 6.04161e-05)
(3.52311e-06 -0.000536007 2.20441e-05)
(9.33718e-06 -0.000455988 -2.25377e-05)
(0.000198972 -8.76086e-05 0.000673205)
(-0.000355694 4.60897e-05 5.78357e-06)
(0.000160183 -0.000779596 -2.93907e-05)
(-0.000394127 -0.00068231 -0.000179739)
(0.000265735 -1.41679e-05 2.23957e-05)
(0.0011749 -0.000978889 0.000522669)
(0.000382717 -0.000563114 0.000362652)
(-0.00245543 -0.000885837 -0.000535188)
(0.00404013 0.000923716 -0.000420391)
(0.00499195 0.00112026 0.00177777)
(0.00482209 0.000355322 0.00343873)
(0.00441687 0.00135911 0.000120918)
(0.00476551 0.00113261 0.00048484)
(0.00671837 -0.00123873 -0.00830444)
(0.00671562 -0.00228769 -0.00644361)
(0.00765086 0.000477484 -0.000674982)
(-0.000775582 0.00180135 -0.000311005)
(-0.000624083 -0.0037101 -0.000218922)
(-3.90853e-05 -3.81482e-05 -0.000731706)
(3.20428e-05 -0.000103069 -3.36859e-05)
(1.63528e-06 -0.000149136 -5.68858e-05)
(3.64587e-06 -0.000319064 -6.71177e-05)
(1.15202e-05 -4.55346e-05 -5.04862e-05)
(7.32705e-05 -4.99984e-05 -0.000127811)
(3.20189e-05 -4.46123e-05 -2.77813e-05)
(3.45306e-05 -3.60366e-05 -9.17607e-06)
(-1.83788e-05 -3.87726e-05 -6.06026e-06)
(-3.7888e-05 -5.58138e-05 6.97986e-05)
(-3.47951e-05 -0.000128308 0.000137513)
(-9.16607e-05 -5.32822e-05 3.40187e-05)
(7.24704e-05 -0.000129925 -1.45986e-05)
(4.33633e-05 -0.000103343 -1.19308e-05)
(-3.02291e-05 -5.81334e-05 1.36098e-05)
(0.000331836 -8.79282e-05 -0.00189577)
(-1.77927e-05 3.92352e-05 -3.2286e-06)
(0.000119958 5.12011e-05 -6.86043e-05)
(0.000294586 1.65068e-05 0.00116249)
(0.000285885 1.34663e-05 2.96851e-05)
(0.000232377 9.45654e-05 1.11742e-06)
(2.35465e-05 0.000129255 -1.70076e-06)
(0.00046281 0.000420768 -0.00104668)
(0.00141539 -0.000924435 0.00446201)
(1.641e-05 0.000136545 -0.000120881)
(0.000550118 -5.34989e-05 -1.74129e-06)
(0.000387526 0.00011581 4.9835e-05)
(-0.000156478 9.64673e-05 2.24925e-05)
(-0.000165036 0.000192999 -2.81575e-05)
(-0.000155142 0.000234445 4.59805e-05)
(-0.000760876 -0.000102278 8.59111e-06)
(-0.00115442 7.97696e-05 -4.39422e-06)
(-0.000777506 -0.000405207 -7.16984e-05)
(-0.000145916 -0.000556439 -4.06951e-05)
(-5.97805e-05 -0.000593189 2.9609e-05)
(-0.000220697 -0.00064756 -0.000152514)
(-3.0414e-05 -0.000486863 0.000108647)
(-0.000169419 -0.000449284 -4.09918e-06)
(0.000103614 -0.000405363 -1.9794e-05)
(0.000105266 -0.000545047 2.86078e-05)
(0.000150091 -0.000807612 -1.59111e-05)
(0.000138833 -0.00101824 4.93505e-05)
(0.000253082 -0.00116581 4.68747e-05)
(1.13468e-05 -0.00133119 -3.0929e-05)
(-0.000164465 -0.00138226 -8.02773e-05)
(0.000225214 -0.00146611 -3.37335e-06)
(-0.0054847 -0.00370556 -0.000323805)
(0.000208228 -0.00123374 -0.000501935)
(0.000143101 -0.00122239 -0.000194471)
(0.000159426 -0.00124089 -3.74004e-05)
(-0.000126915 -0.00125216 3.48817e-05)
(-0.000259675 -0.00105126 5.35804e-05)
(0.000206683 -0.000790655 2.45585e-05)
(0.000410519 -0.000702179 -7.08314e-05)
(0.000279917 -0.000681229 0.000131788)
(-0.000138586 -0.000314592 -5.53096e-05)
(0.000264321 -0.000439469 -1.80716e-05)
(0.000802482 -0.000710886 -8.61852e-05)
(0.00161165 -0.000910943 -0.000433618)
(0.000637014 -0.0013299 0.000148245)
(0.000343351 -0.000808454 -0.000536471)
(0.00362502 0.000397424 -6.1067e-06)
(0.0044848 0.000644442 0.000128083)
(0.00483235 0.00118826 0.000210381)
(0.00445446 0.00140488 0.00199872)
(0.00463746 0.000956612 -0.000461334)
(0.0052288 0.000365021 -0.0122649)
(0.00601498 -7.00522e-05 -0.00734367)
(0.00432287 0.00146404 0.000674067)
(-0.0354171 -0.0148471 5.74173e-05)
(0.000580207 0.00171574 -0.000550023)
(-1.98447e-05 -8.76513e-06 -0.000103532)
(-2.9175e-05 1.33424e-05 7.84553e-05)
(1.48688e-05 -6.28593e-06 7.85275e-05)
(-1.62679e-05 -0.000381286 -7.30667e-05)
(-0.000102311 -4.25983e-05 -4.15862e-05)
(0.000109209 -0.000179893 3.90078e-05)
(5.39535e-05 -6.2025e-05 5.95118e-05)
(-3.44745e-05 -4.10261e-05 -4.15425e-05)
(1.35702e-05 -1.70154e-05 -9.93346e-06)
(2.56325e-05 -6.13208e-05 2.31524e-05)
(-1.23013e-06 -0.000110439 7.50192e-05)
(2.26444e-06 -0.000105983 -3.76276e-05)
(8.72802e-05 -0.00011591 -7.46366e-05)
(9.16482e-05 -5.0494e-05 -5.34127e-06)
(2.01963e-07 6.6323e-05 3.45196e-05)
(-6.76388e-07 6.61315e-05 5.20213e-05)
(-2.28599e-05 4.73676e-05 -2.29042e-06)
(3.2506e-05 3.34134e-05 -5.88564e-06)
(0.000234405 9.4792e-06 -3.52336e-05)
(0.000229553 -1.9207e-05 -2.14724e-05)
(0.000144646 7.86364e-06 6.0303e-05)
(0.000113016 4.17557e-05 -9.56336e-06)
(-1.51649e-05 0.00013263 2.51416e-05)
(8.66969e-05 0.000217297 3.01993e-06)
(0.000114049 0.00030184 0.000143407)
(0.00040989 8.3155e-05 0.00011154)
(-0.000467263 7.63492e-05 0.0010853)
(-4.12589e-05 0.000111941 0.0028818)
(8.2535e-05 0.00015055 1.24562e-05)
(0.000273014 -0.000114058 -0.000231014)
(0.000238453 0.00022648 -0.000596536)
(0.000130468 0.000222276 3.18313e-05)
(-0.000562441 -0.000436612 -0.000114311)
(-0.000113018 -0.000428861 2.98033e-05)
(-5.68959e-06 -0.000500143 0.000141158)
(-0.000290206 -0.000559984 0.000214035)
(-6.60245e-05 -0.000481565 0.00018836)
(-3.66275e-05 -0.00046127 -1.61851e-05)
(1.47148e-05 -0.000539504 2.92082e-05)
(2.27019e-05 -0.000686757 3.15712e-05)
(0.000153385 -0.000799797 5.58004e-05)
(0.000190433 -0.000879022 0.000148315)
(-0.00516526 -0.00272644 4.96527e-05)
(-0.00324296 -0.00268069 -0.00454724)
(0.000115668 -0.00142718 8.61846e-05)
(0.000437204 -0.00162076 4.83484e-05)
(0.000210774 -0.0014127 -9.82221e-06)
(8.36082e-05 -0.00156535 -0.000105032)
(0.00031965 -0.00123029 -0.000206422)
(0.000310643 -0.00125 -0.000403336)
(-1.76753e-05 -0.00104542 -6.77467e-05)
(-0.000249 -0.000948197 0.000127909)
(-0.000112143 -0.00111849 -0.000151397)
(0.000389269 -0.000970911 8.89601e-07)
(0.000311928 -0.0008924 0.000692279)
(-0.000121407 -0.000721176 0.000264959)
(0.000104766 -0.000381674 1.10952e-05)
(0.000453513 -0.000360721 -7.69068e-06)
(0.00116187 -0.0017963 0.000784652)
(0.000818427 -0.000838569 0.000213496)
(-0.00014791 -0.00110362 -0.000771992)
(0.0015202 -0.000434194 -0.000209239)
(0.0032575 -0.00144454 4.75084e-05)
(0.0052171 -0.000183301 -0.00563981)
(0.00369988 0.0011881 0.000274486)
(0.00492184 0.000781105 -0.000648872)
(0.0053699 0.00065889 -0.0136501)
(0.00415449 0.000818316 -0.0113224)
(0.0040119 0.000664362 -0.000207721)
(-0.0362171 -0.00451824 0.00024462)
(-0.0438407 -0.00778195 -0.000461947)
(-3.29238e-06 9.00304e-05 -4.15672e-05)
(0.000294194 -0.00107564 -0.00506725)
(0.000159661 1.96581e-05 -1.48316e-05)
(1.15398e-05 1.84113e-05 1.98505e-06)
(-3.77896e-05 9.2731e-05 -3.43323e-05)
(-2.69382e-05 -1.87163e-07 -7.73437e-05)
(6.83094e-06 -1.23164e-05 -2.16522e-05)
(-2.09108e-05 -2.37828e-05 9.2862e-06)
(-9.08406e-05 0.000138337 -6.46402e-05)
(3.73281e-05 -3.02255e-05 -4.65034e-05)
(5.80722e-05 6.78426e-05 6.09158e-06)
(2.44419e-05 8.87361e-05 1.55919e-05)
(2.27698e-05 0.00011843 -4.15522e-05)
(2.68165e-05 8.20606e-05 -4.94335e-06)
(1.73358e-05 6.03971e-05 -6.66229e-06)
(0.000180501 2.6661e-05 -0.000114442)
(0.00016082 -5.41012e-05 -2.76498e-05)
(0.000140735 -4.41136e-05 -1.10102e-05)
(1.24767e-05 -1.59339e-05 3.99325e-05)
(-4.90353e-05 4.46329e-05 -2.38994e-06)
(-4.17896e-05 4.56268e-05 -3.6105e-05)
(-1.54853e-05 3.50914e-05 -4.76546e-05)
(-0.00026234 3.71326e-05 -0.000108453)
(-0.000172459 -0.000239596 -9.0556e-05)
(0.000269222 -0.000322521 -0.000108409)
(8.09093e-05 -0.000566961 1.12192e-05)
(0.000504007 -0.000255984 -0.0041397)
(-8.13258e-06 -0.000195695 -0.00236413)
(0.000334453 -0.000144545 -7.22993e-05)
(0.000195355 -0.000151396 0.000180763)
(0.000740213 -0.000365881 0.000119531)
(0.000184832 -0.000491447 9.66708e-06)
(0.0002623 -0.000506446 1.8041e-06)
(0.000348267 -0.000376416 -2.09235e-05)
(-8.36522e-05 -0.000542437 -6.46597e-05)
(-9.98592e-05 -0.000627663 5.3411e-05)
(6.71208e-05 -0.000692191 2.99441e-05)
(0.000146984 -0.000615656 -0.000118162)
(-0.000224354 -0.000647349 0.000204472)
(-0.00445382 -0.00186674 -0.000238783)
(0.000871737 -0.00273208 -0.00380833)
(0.00128692 -0.00674156 4.45508e-05)
(-0.00101269 -0.00488585 0.00248861)
(6.14902e-06 -0.00129038 -3.22587e-05)
(0.000144667 -0.0012314 2.66999e-05)
(0.000387988 -0.0011722 -0.000295769)
(0.000446528 -0.000968878 -3.69512e-05)
(0.000226696 -0.000627497 0.000177111)
(0.000278177 -0.000481753 -3.23541e-06)
(-0.00048574 -0.000807901 -0.000288841)
(-0.000331379 -0.000643655 1.15709e-05)
(0.000144553 -0.000712536 0.000492226)
(0.00129582 -0.000188831 -0.000121382)
(0.000270687 -0.000888192 0.000727966)
(0.000939682 -0.00082889 2.64897e-07)
(0.00122452 -0.00077389 5.85255e-05)
(0.000443961 -0.00143879 0.000288726)
(0.000361575 -0.000954275 -7.31649e-05)
(0.0025098 -0.00263436 0.00129)
(0.00128031 -0.00118502 0.00131946)
(0.00201735 -0.00146245 -0.00112132)
(0.00498325 0.000464927 0.00274788)
(0.00503081 0.00109278 -6.07263e-05)
(0.00542626 0.000813904 -0.00639804)
(0.00446956 0.00149477 -0.00751993)
(0.0039658 0.000768294 0.00119571)
(-0.0352385 -0.0040052 -0.000247927)
(-0.034633 -0.00397977 -0.000155732)
(0.000512423 -0.00102732 0.000213905)
(0.000344634 -0.0010183 4.07757e-05)
(-0.000168854 -0.00120836 -3.15582e-05)
(-0.000159313 -0.000566514 -0.00112866)
(-0.000285287 -0.00149061 0.000134372)
(0.000141676 -0.00112598 -3.91065e-05)
(0.000193766 -0.000712644 -0.000309259)
(0.000344245 -0.000700318 1.81077e-05)
(0.001032 -0.00082084 4.45935e-05)
(0.000803314 -0.000659116 -0.00042624)
(-0.000838992 -0.000515764 5.43886e-05)
(0.000541906 -0.000425886 2.62445e-06)
(0.00145683 -0.00153801 -0.00234997)
(0.000870491 -0.00176542 -3.60848e-05)
(0.00112221 -0.00149918 0.000210565)
(0.00108035 -0.00115462 -0.00012227)
(0.000350786 -0.000976519 2.56306e-05)
(0.00086977 -0.00221272 5.87729e-05)
(0.0021937 -0.00273025 0.00144361)