/*--------------------------------*- C++ -*----------------------------------*\
  =========                 |
  \\      /  F ield         | OpenFOAM: The Open Source CFD Toolbox
   \\    /   O peration     | Website:  https://openfoam.org
    \\  /    A nd           | Version:  8
     \\/     M anipulation  |
\*---------------------------------------------------------------------------*/
FoamFile
{
    version     2.0;
    format      ascii;
    class       vectorFieldField;
    location    "0/lagrangian/kinematicCloud";
    object      collisionRecordsPairData;
}
// * * * * * * * * * * * * * * * * * * * * * * * * * * * * * * * * * * * * * //


1578
(
2((1.90751e-07 -9.68798e-08 1.46482e-08) (-1.50771e-07 -2.66284e-07 -1.98279e-08))
4((-1.90751e-07 9.68798e-08 -1.46482e-08) (-1.45299e-07 1.00249e-07 -4.42895e-09) (5.78096e-09 6.86912e-08 -4.79787e-08) (7.56597e-09 4.41777e-09 -1.81873e-08))
3((-5.78096e-09 -6.86912e-08 4.79787e-08) (1.19175e-08 -5.61254e-08 3.13075e-08) (-4.45478e-09 -9.94657e-10 2.01319e-08))
3((1.27096e-08 -5.49529e-08 -5.17026e-08) (2.17857e-08 -5.14017e-08 -4.01355e-08) (4.45478e-09 9.94657e-10 -2.01319e-08))
4((-1.27096e-08 5.49529e-08 5.17026e-08) (-4.19196e-08 -1.61061e-08 -2.93858e-08) (3.48821e-08 5.21788e-09 -2.23967e-08) (1.29516e-08 -4.01183e-08 3.20386e-08))
4((2.84204e-08 -8.87746e-08 -1.35166e-08) (-1.19175e-08 5.61254e-08 -3.13075e-08) (4.19196e-08 1.61061e-08 2.93858e-08) (-7.87562e-08 -3.61784e-08 3.209e-08))
5((1.50029e-07 2.09643e-08 -1.09823e-08) (2.05072e-07 7.94277e-08 6.76271e-09) (-8.06537e-08 7.96905e-08 -3.41596e-08) (-1.29516e-08 4.01183e-08 -3.20386e-08) (0 0 0))
2((4.23702e-08 5.28725e-09 -3.72734e-09) (0 0 0))
2((-2.15849e-08 -9.18525e-09 5.7977e-09) (0 0 0))
3((-2.32778e-07 6.64429e-09 2.71597e-09) (-2.0531e-07 1.55529e-07 -8.6214e-10) (2.15849e-08 9.18525e-09 -5.7977e-09))
1((-1.1089e-08 -9.29527e-11 1.61749e-08))
3((2.90843e-07 1.14832e-07 -7.0001e-09) (2.0531e-07 -1.55529e-07 8.6214e-10) (4.76957e-09 4.73373e-08 -4.46473e-09))
1((-2.09068e-08 8.62651e-10 -6.55034e-10))
2((-4.76957e-09 -4.73373e-08 4.46473e-09) (-4.96271e-09 -4.27599e-08 3.41942e-09))
4((-3.13986e-07 -1.33814e-07 2.85431e-09) (-2.78585e-07 2.21056e-07 8.09019e-09) (4.96271e-09 4.27599e-08 -3.41942e-09) (-1.08082e-07 -4.26872e-08 -1.13009e-08))
4((3.20436e-07 1.34917e-07 -9.60479e-09) (-2.06213e-07 -8.11876e-08 -2.00307e-08) (-1.33332e-07 1.07993e-07 -3.37556e-09) (3.8233e-07 -3.04221e-07 2.83338e-08))
3((1.30711e-09 -2.45244e-09 1.0092e-08) (2.81879e-08 7.21775e-09 3.58894e-09) (5.53081e-08 -4.46115e-08 -3.97195e-09))
2((1.11974e-08 6.82128e-09 9.28013e-09) (1.46249e-08 6.66628e-09 -8.67062e-10))
3((-1.11974e-08 -6.82128e-09 -9.28013e-09) (9.878e-09 4.76267e-09 -6.01154e-09) (4.24012e-08 -3.62672e-08 -1.94944e-08))
3((5.70109e-08 2.18725e-08 1.31324e-08) (3.0115e-08 1.10897e-08 9.58701e-09) (3.95564e-08 -3.51866e-08 -2.77229e-09))
4((3.42894e-08 1.31561e-08 -2.49386e-08) (-1.02349e-08 -5.61055e-09 -2.81589e-08) (-7.93561e-08 6.63499e-08 -4.07102e-10) (-1.6109e-08 1.38843e-08 -8.79298e-09))
4((-6.01036e-08 -2.2947e-08 -1.71758e-08) (-5.70109e-08 -2.18725e-08 -1.31324e-08) (1.78992e-08 -1.49097e-08 8.22114e-09) (1.6109e-08 -1.38843e-08 8.79298e-09))
4((1.02349e-08 5.61055e-09 2.81589e-08) (1.93304e-08 7.23729e-09 3.47069e-08) (-6.63043e-08 5.89955e-08 2.49781e-08) (-4.24012e-08 3.62672e-08 1.94944e-08))
3((-1.7638e-07 -6.56639e-08 1.46789e-08) (-7.61568e-08 -2.89122e-08 1.05697e-08) (-1.16083e-07 1.00591e-07 8.6575e-09))
4((-1.56477e-08 -6.07181e-09 2.27807e-08) (-1.45523e-07 -5.07855e-08 2.14391e-08) (1.39844e-08 -1.1737e-08 -1.46112e-08) (2.07664e-07 -1.80666e-07 -1.64191e-08))
2((-2.92037e-08 2.75151e-08 -5.08937e-08) (-3.42185e-08 2.8386e-08 -5.08922e-08))
4((2.92037e-08 -2.75151e-08 5.08937e-08) (-4.05391e-08 4.9028e-08 3.12936e-08) (-1.25387e-07 -4.62638e-08 7.86662e-09) (-2.60359e-07 -9.46551e-08 -6.73625e-09))
4((-1.05557e-07 1.31126e-07 5.07962e-09) (2.60359e-07 9.46551e-08 6.73625e-09) (3.89798e-08 -3.89197e-08 7.21509e-09) (-1.58621e-08 -5.9247e-09 -1.52876e-08))
4((1.05557e-07 -1.31126e-07 -5.07962e-09) (7.91523e-08 -7.1261e-08 -2.14485e-08) (-4.08483e-08 -1.46312e-08 -6.97376e-09) (-1.38705e-07 -5.07526e-08 -2.05669e-08))
5((-9.98056e-08 -3.6769e-08 1.20304e-08) (-4.21951e-08 -1.5176e-08 -6.45269e-10) (-1.08293e-07 9.90422e-08 -2.02205e-10) (7.52438e-08 -6.27234e-08 -1.93256e-08) (2.84536e-08 1.58048e-07 1.42945e-09))
4((-1.5038e-07 1.29829e-07 7.77784e-09) (-2.93895e-07 -1.04624e-07 1.62799e-08) (4.01772e-09 1.31789e-09 2.6176e-08) (-2.84536e-08 -1.58048e-07 -1.42945e-09))
4((1.38697e-07 4.97591e-08 -3.31707e-09) (1.83559e-08 -1.55299e-08 -8.40123e-09) (1.5038e-07 -1.29829e-07 -7.77784e-09) (-9.64335e-08 -3.455e-08 -5.59708e-10))
4((9.64335e-08 3.455e-08 5.59708e-10) (9.05536e-08 -7.8395e-08 -7.42808e-09) (-2.50577e-08 -1.65709e-08 6.75306e-09) (-1.90634e-08 2.3677e-08 -4.83255e-09))
2((1.90634e-08 -2.3677e-08 4.83255e-09) (-1.89063e-08 -1.22139e-08 5.85124e-09))
5((2.62209e-08 -3.41209e-08 9.9288e-09) (5.15089e-08 -2.8167e-08 1.18401e-08) (2.00534e-08 1.05613e-08 7.49696e-09) (4.23928e-10 2.58963e-08 -4.29561e-10) (1.89063e-08 1.22139e-08 -5.85124e-09))
4((-4.96947e-09 2.48291e-09 -1.16399e-08) (-5.15089e-08 2.8167e-08 -1.18401e-08) (-5.74011e-08 -3.53242e-08 7.37186e-09) (3.59246e-10 4.02402e-08 4.11945e-09))
2((-1.46437e-08 -8.89803e-09 1.2115e-08) (-4.23928e-10 -2.58963e-08 4.29561e-10))
2((2.86069e-09 -4.07801e-08 -3.94539e-09) (-3.59246e-10 -4.02402e-08 -4.11945e-09))
2((1.58262e-08 1.65155e-08 -6.08159e-09) (1.05844e-08 -6.59235e-09 -4.90925e-09))
4((-5.39457e-08 2.77055e-08 1.14841e-08) (9.7801e-09 -4.32872e-09 1.12426e-08) (-5.29619e-08 -4.68235e-08 4.15644e-10) (-1.62319e-09 1.36115e-08 1.14873e-08))
3((-9.7801e-09 4.32872e-09 -1.12426e-08) (-5.18452e-09 2.34222e-09 -1.11882e-08) (8.16223e-09 6.04791e-09 -4.10759e-10))
5((8.71128e-08 6.50122e-08 -6.87305e-09) (1.62319e-09 -1.36115e-08 -1.14873e-08) (9.10629e-08 -4.18947e-08 -2.01828e-08) (-1.1173e-08 4.85439e-09 -4.28902e-09) (-8.16223e-09 -6.04791e-09 4.10759e-10))
3((5.29619e-08 4.68235e-08 -4.15644e-10) (3.92872e-08 2.37375e-08 -3.65822e-09) (-2.86069e-09 4.07801e-08 3.94539e-09))
4((2.10239e-07 1.55144e-07 -1.61985e-08) (3.08172e-07 2.29128e-07 -3.0563e-08) (-9.10629e-08 4.18947e-08 2.01828e-08) (8.96916e-09 -8.38707e-08 2.66741e-08))
5((-1.00652e-07 4.22773e-08 1.40237e-08) (-2.19084e-07 9.77435e-08 -1.28769e-08) (-3.08172e-07 -2.29128e-07 3.0563e-08) (2.79833e-08 -2.32105e-07 -4.90152e-08) (-2.13928e-08 -1.57591e-08 5.57196e-08))
5((-2.60776e-07 1.13117e-07 3.60397e-08) (-1.00409e-07 4.58671e-08 -7.03116e-08) (1.15388e-09 -1.19033e-08 -4.28155e-08) (-2.79833e-08 2.32105e-07 4.90152e-08) (6.95833e-08 5.20441e-08 1.12855e-07))
6((1.6596e-08 -1.7695e-07 -1.18192e-07) (-1.15388e-09 1.19033e-08 4.28155e-08) (1.2877e-07 -5.49325e-08 -1.79355e-07) (-2.80174e-07 1.21245e-07 2.26765e-09) (-2.60956e-07 -1.93889e-07 8.78399e-08) (2.03696e-09 -1.2845e-09 -1.15596e-07))
5((-4.95944e-07 2.10295e-07 -1.14592e-07) (-4.35743e-07 1.88789e-07 -5.11409e-08) (-1.6596e-08 1.7695e-07 1.18192e-07) (-2.04345e-08 1.76365e-07 -6.34744e-09) (3.40735e-08 2.54019e-08 4.83699e-08))
5((1.97466e-07 -8.71776e-08 4.39883e-08) (2.25859e-07 -9.57412e-08 -1.60396e-08) (-3.40735e-08 -2.54019e-08 -4.83699e-08) (1.63846e-08 -1.4143e-07 4.44605e-08) (5.36415e-09 -4.24899e-09 1.44754e-07))
4((-1.97466e-07 8.71776e-08 -4.39883e-08) (5.20614e-08 -2.39514e-08 -3.98988e-08) (2.04345e-08 -1.76365e-07 6.34744e-09) (-9.20256e-09 8.0457e-08 1.72413e-08))
4((2.47259e-07 -1.07678e-07 -1.11061e-09) (3.96576e-07 -1.64811e-07 9.11188e-09) (-1.63846e-08 1.4143e-07 -4.44605e-08) (-5.01749e-08 -3.86695e-08 -4.5867e-09))
4((-2.47259e-07 1.07678e-07 1.11061e-09) (-1.617e-07 7.02368e-08 1.00491e-09) (9.20256e-09 -8.0457e-08 -1.72413e-08) (1.4303e-08 1.07353e-08 1.41704e-08))
4((-5.88834e-08 2.74469e-08 1.24524e-08) (-9.66532e-09 4.19053e-09 1.51405e-09) (2.79778e-08 1.91035e-08 -2.66702e-08) (-1.4303e-08 -1.07353e-08 -1.41704e-08))
2((9.66532e-09 -4.19053e-09 -1.51405e-09) (9.71786e-09 -4.50705e-09 -3.83674e-09))
3((2.63014e-08 -1.12796e-08 -1.22887e-08) (1.06098e-08 -4.58495e-09 -1.06921e-10) (7.68357e-09 5.87863e-09 4.33199e-09))
2((-2.63014e-08 1.12796e-08 1.22887e-08) (-8.51492e-09 -6.09309e-09 1.46178e-08))
4((-4.38225e-08 1.51369e-08 2.35564e-08) (-3.37366e-08 1.2276e-08 1.38181e-08) (7.96733e-11 -8.71632e-09 -3.4435e-08) (8.51492e-09 6.09309e-09 -1.46178e-08))
4((1.87479e-07 -7.69797e-08 2.7442e-08) (1.7696e-07 -7.05797e-08 1.53343e-08) (-1.84475e-08 -1.35922e-08 -2.03272e-08) (-7.96733e-11 8.71632e-09 3.4435e-08))
4((-4.06347e-08 -3.21057e-08 -3.39054e-08) (3.81322e-07 -1.53553e-07 2.55438e-08) (2.01429e-07 -7.94435e-08 2.37575e-08) (-1.97331e-07 -1.53231e-07 -5.16469e-08))
4((4.06347e-08 3.21057e-08 3.39054e-08) (-1.10436e-07 4.80667e-08 1.10486e-07) (-2.17398e-08 1.51374e-07 1.17921e-07) (0 0 0))
4((4.27465e-07 3.31304e-07 3.27361e-08) (2.70635e-07 2.22372e-07 -1.28124e-08) (2.17398e-08 -1.51374e-07 -1.17921e-07) (1.54149e-07 -6.10602e-08 2.3007e-08))
4((-4.27465e-07 -3.31304e-07 -3.27361e-08) (-5.07603e-07 -4.06479e-07 -2.04516e-08) (2.45368e-08 -1.61201e-07 2.68627e-08) (-1.41713e-08 5.48214e-09 -3.35916e-09))
4((-2.45368e-08 1.61201e-07 -2.68627e-08) (2.76004e-07 2.18634e-07 -6.12762e-09) (1.71805e-07 -6.76914e-08 -5.71454e-09) (1.07449e-08 -6.48569e-08 -3.34378e-08))
5((-2.76004e-07 -2.18634e-07 6.12762e-09) (-2.91394e-07 1.15275e-07 -1.1912e-08) (2.8342e-08 -1.87951e-07 1.44506e-08) (1.71817e-07 1.37051e-07 -1.95413e-08) (1.03969e-07 -4.11286e-08 -1.84056e-08))
5((-1.2787e-07 -1.03352e-07 1.6225e-08) (3.606e-07 -1.42599e-07 1.85706e-08) (5.57381e-08 -3.66144e-07 5.42868e-09) (-2.8342e-08 1.87951e-07 -1.44506e-08) (4.68164e-08 3.66521e-08 -1.22786e-08))
5((1.2787e-07 1.03352e-07 -1.6225e-08) (3.36097e-08 2.6764e-08 -1.19944e-08) (7.50976e-09 -5.0451e-08 1.69635e-08) (-1.03969e-07 4.11286e-08 1.84056e-08) (-1.07449e-08 6.48569e-08 3.34378e-08))
4((8.61202e-09 4.0136e-09 -1.199e-08) (3.17196e-08 2.39969e-08 -9.39505e-09) (-5.58518e-08 3.72454e-07 -1.08321e-08) (-5.57381e-08 3.66144e-07 -5.42868e-09))
3((-2.3023e-07 9.14327e-08 5.51519e-09) (-1.96975e-07 -1.56888e-07 6.64033e-09) (8.75309e-09 -6.03501e-08 5.30085e-09))
5((-5.04998e-08 -4.03407e-08 -1.97387e-08) (5.58518e-08 -3.72454e-07 1.08321e-08) (3.85755e-08 -2.51402e-07 6.26411e-11) (-4.94539e-08 1.95791e-08 -1.96828e-08) (1.53478e-07 -6.08099e-08 5.37645e-09))
4((-1.7896e-07 -1.42613e-07 5.27157e-09) (6.36745e-08 5.09974e-08 -2.33095e-09) (2.36748e-07 -2.42601e-07 1.26556e-08) (-4.38377e-08 1.7522e-08 5.1082e-09))
4((2.3023e-07 -9.14327e-08 -5.51519e-09) (1.33976e-07 -5.5081e-08 -7.68717e-09) (1.7896e-07 1.42613e-07 -5.27157e-09) (-3.85755e-08 2.51402e-07 -6.26411e-11))
3((2.29363e-08 1.76537e-08 1.85969e-08) (-1.7001e-07 4.33359e-09 -1.30395e-08) (-2.36748e-07 2.42601e-07 -1.26556e-08))
3((8.88979e-09 -9.33176e-09 -1.47457e-08) (-1.26456e-08 -3.8561e-08 -1.78739e-08) (-2.29363e-08 -1.76537e-08 -1.85969e-08))
3((1.27653e-08 1.94978e-09 -1.09802e-08) (-3.91921e-08 -1.52883e-08 -3.43006e-08) (1.21487e-08 -1.82361e-08 5.26397e-08))
3((1.8518e-08 -2.36981e-08 -7.25928e-09) (3.06791e-08 -5.45212e-08 -1.32682e-08) (-1.15026e-07 -2.09633e-08 9.68708e-09))
3((1.15026e-07 2.09633e-08 -9.68708e-09) (3.5453e-08 -6.85644e-09 -1.93446e-08) (-1.21487e-08 1.82361e-08 -5.26397e-08))
3((-5.20314e-08 -9.30884e-08 4.73734e-09) (-1.48055e-07 4.46797e-10 7.02538e-09) (-3.45322e-07 -2.5211e-10 5.65987e-10))
3((-3.06791e-08 5.45212e-08 1.32682e-08) (5.20314e-08 9.30884e-08 -4.73734e-09) (5.3668e-08 1.52875e-09 -5.92286e-08))
2((-7.56597e-09 -4.41777e-09 1.81873e-08) (-2.26031e-08 7.58048e-09 6.61034e-09))
2((1.52554e-07 -4.81282e-08 9.6237e-09) (1.45299e-07 -1.00249e-07 4.42895e-09))
2((6.56045e-08 6.1333e-08 -2.81429e-08) (7.87562e-08 3.61784e-08 -3.209e-08))
3((-2.08672e-07 2.1103e-07 3.78353e-09) (-2.84204e-08 8.87746e-08 1.35166e-08) (-2.05072e-07 -7.94277e-08 -6.76271e-09))
2((-1.70977e-08 -3.48132e-08 4.4792e-09) (-2.04161e-08 -4.25951e-08 1.20714e-09))
4((8.06537e-08 -7.96905e-08 3.41596e-08) (6.27084e-08 -5.21419e-08 3.49981e-08) (6.09184e-08 2.35115e-08 -4.25643e-08) (0 0 0))
5((2.08672e-07 -2.1103e-07 -3.78353e-09) (1.2041e-07 -9.76293e-08 1.17859e-08) (-1.52436e-08 -1.01991e-07 -2.25457e-08) (2.04161e-08 4.25951e-08 -1.20714e-09) (-6.09184e-08 -2.35115e-08 4.25643e-08))
4((7.0689e-09 5.27774e-08 -7.29677e-09) (1.52436e-08 1.01991e-07 2.25457e-08) (-1.14724e-07 -4.45058e-08 -3.59391e-08) (-6.27084e-08 5.21419e-08 -3.49981e-08))
4((9.22496e-09 1.17495e-07 2.91776e-09) (-7.0689e-09 -5.27774e-08 7.29677e-09) (-2.90843e-07 -1.14832e-07 7.0001e-09) (-9.99651e-08 -3.8791e-08 1.1968e-08))
3((-9.22496e-09 -1.17495e-07 -2.91776e-09) (-6.26472e-09 -4.80941e-08 -2.66206e-09) (1.21157e-07 4.67919e-08 1.94518e-10))
4((-4.27079e-09 -1.89321e-08 3.59914e-09) (-1.09467e-08 -8.86102e-08 -4.06213e-09) (-4.88329e-08 -1.8746e-08 -1.41061e-08) (-1.24677e-07 -4.8076e-08 -1.3439e-08))
4((6.26472e-09 4.80941e-08 2.66206e-09) (1.06413e-08 7.13026e-08 2.41584e-09) (1.24677e-07 4.8076e-08 1.3439e-08) (1.08082e-07 4.26872e-08 1.13009e-08))
5((4.27079e-09 1.89321e-08 -3.59914e-09) (-9.76617e-08 -3.70844e-08 -9.47298e-09) (-1.62353e-07 -6.18067e-08 -4.90724e-09) (5.00101e-08 -4.11945e-08 -1.03397e-08) (1.31886e-08 7.8297e-08 1.74892e-09))
5((9.76617e-08 3.70844e-08 9.47298e-09) (-3.20436e-07 -1.34917e-07 9.60479e-09) (-1.6877e-07 1.36192e-07 7.82565e-10) (-1.06413e-08 -7.13026e-08 -2.41584e-09) (2.78585e-07 -2.21056e-07 -8.09019e-09))
5((-7.90606e-08 -3.03795e-08 -8.83847e-09) (-1.25094e-07 -5.24029e-08 -1.45543e-08) (2.37924e-07 -1.93976e-07 -2.32755e-09) (1.6877e-07 -1.36192e-07 -7.82565e-10) (-1.31886e-08 -7.8297e-08 -1.74892e-09))
4((7.90606e-08 3.03795e-08 8.83847e-09) (-2.81879e-08 -7.21775e-09 -3.58894e-09) (2.46483e-08 -2.0616e-08 1.58257e-09) (1.33332e-07 -1.07993e-07 3.37556e-09))
4((-1.46249e-08 -6.66628e-09 8.67062e-10) (-2.46483e-08 2.0616e-08 -1.58257e-09) (-1.28464e-07 -5.80912e-08 6.94665e-09) (9.38014e-08 -7.87308e-08 -1.90706e-08))
3((-1.93304e-08 -7.23729e-09 -3.47069e-08) (-6.54086e-08 -3.21145e-08 -4.11093e-08) (4.11025e-09 -3.65706e-09 9.46227e-10))
4((-1.78992e-08 1.49097e-08 -8.22114e-09) (3.54718e-08 -3.29828e-08 -1.08085e-08) (7.61568e-08 2.89122e-08 -1.05697e-08) (-8.81522e-09 -3.07424e-09 -5.00231e-09))
4((1.00171e-07 3.24302e-08 1.01894e-08) (6.01036e-08 2.2947e-08 1.71758e-08) (6.63043e-08 -5.89955e-08 -2.49781e-08) (-1.27585e-08 1.0807e-08 4.17071e-09))
3((1.65454e-08 7.03818e-09 6.43433e-09) (8.81522e-09 3.07424e-09 5.00231e-09) (1.27585e-08 -1.0807e-08 -4.17071e-09))
4((1.56477e-08 6.07181e-09 -2.27807e-08) (7.62289e-08 2.99432e-08 -1.66453e-08) (1.16083e-07 -1.00591e-07 -8.6575e-09) (-2.97532e-08 2.62798e-08 -3.34947e-08))
1((2.97532e-08 -2.62798e-08 3.34947e-08))
2((-1.39844e-08 1.1737e-08 1.46112e-08) (-2.07279e-08 2.19722e-08 -1.25479e-08))
4((9.71746e-08 3.5374e-08 9.09962e-09) (-7.62289e-08 -2.99432e-08 1.66453e-08) (-3.54718e-08 3.29828e-08 1.08085e-08) (-2.67755e-07 2.22987e-07 -4.13256e-09))
4((1.25387e-07 4.62638e-08 -7.86662e-09) (2.48465e-07 9.15804e-08 -3.38749e-08) (-9.20825e-08 1.16192e-07 2.52168e-08) (2.07279e-08 -2.19722e-08 1.25479e-08))
4((7.99327e-08 -8.22259e-08 -2.24758e-08) (4.05391e-08 -4.9028e-08 -3.12936e-08) (4.08483e-08 1.46312e-08 6.97376e-09) (-5.094e-08 -1.90525e-08 -2.57337e-08))
4((9.20825e-08 -1.16192e-07 -2.52168e-08) (-4.93859e-08 4.45189e-08 -2.92352e-08) (1.85879e-07 6.97433e-08 4.5214e-09) (5.094e-08 1.90525e-08 2.57337e-08))
5((-7.91523e-08 7.1261e-08 2.14485e-08) (-4.5258e-09 3.73441e-09 5.89505e-09) (9.98056e-08 3.6769e-08 -1.20304e-08) (-5.26285e-09 -1.9767e-09 -7.07257e-09) (9.30998e-09 5.19097e-08 3.95958e-08))
4((-7.99327e-08 8.22259e-08 2.24758e-08) (-9.34621e-08 8.04571e-08 2.31109e-08) (5.26285e-09 1.9767e-09 7.07257e-09) (6.77772e-08 2.576e-08 3.08997e-08))
4((-7.52438e-08 6.27234e-08 1.93256e-08) (-3.28251e-08 2.82502e-08 -3.43365e-09) (-4.01772e-09 -1.31789e-09 -2.6176e-08) (-9.30998e-09 -5.19097e-08 -3.95958e-08))
3((6.4956e-09 -5.78716e-09 -1.79059e-09) (4.5258e-09 -3.73441e-09 -5.89505e-09) (-1.50489e-08 -6.55192e-09 -3.0195e-08))
4((1.16896e-08 4.21735e-09 1.26436e-08) (-1.38697e-07 -4.97591e-08 3.31707e-09) (3.28251e-08 -2.82502e-08 3.43365e-09) (-8.90891e-08 7.51985e-08 -1.11072e-08))
3((-1.83559e-08 1.55299e-08 8.40123e-09) (-6.3534e-08 5.43731e-08 9.65889e-09) (-1.66707e-08 -8.84898e-08 2.95702e-09))
2((5.74011e-08 3.53242e-08 -7.37186e-09) (1.66707e-08 8.84898e-08 -2.95702e-09))
2((6.3534e-08 -5.43731e-08 -9.65889e-09) (7.38334e-08 -4.10125e-08 -1.02562e-08))
3((3.52302e-09 -9.35994e-08 1.32764e-08) (-7.77445e-08 -3.23285e-08 1.24162e-08) (4.96947e-09 -2.48291e-09 1.16399e-08))
4((-3.52302e-09 9.35994e-08 -1.32764e-08) (-1.81351e-08 1.31324e-07 -5.66095e-09) (-3.92872e-08 -2.37375e-08 3.65822e-09) (-7.47151e-09 -2.53481e-09 4.00378e-09))
3((1.3497e-08 -1.46964e-07 -2.45471e-09) (1.81351e-08 -1.31324e-07 5.66095e-09) (-2.32258e-08 -8.08225e-09 -1.95296e-09))
5((-6.09593e-09 5.15266e-08 4.12226e-09) (-2.86187e-07 -1.3029e-07 3.4802e-08) (-1.3497e-08 1.46964e-07 2.45471e-09) (-2.10239e-07 -1.55144e-07 1.61985e-08) (5.18452e-09 -2.34222e-09 1.11882e-08))
4((8.39101e-08 -3.699e-08 -2.1617e-08) (1.00652e-07 -4.22773e-08 -1.40237e-08) (-2.60646e-08 -1.93498e-08 -3.52488e-09) (-8.96916e-09 8.38707e-08 -2.66741e-08))
4((6.09593e-09 -5.15266e-08 -4.12226e-09) (-5.01156e-08 -1.7652e-08 1.84899e-09) (1.13882e-08 -1.03235e-07 -2.59481e-09) (2.60646e-08 1.93498e-08 3.52488e-09))
5((2.40041e-08 -2.24307e-07 3.06919e-09) (-4.25297e-07 -1.43881e-07 2.23402e-08) (-8.39101e-08 3.699e-08 2.1617e-08) (-1.11434e-07 -8.302e-08 -3.06588e-09) (-1.13882e-08 1.03235e-07 2.59481e-09))
4((1.83967e-08 -1.48759e-07 -5.2579e-08) (2.60776e-07 -1.13117e-07 -3.60397e-08) (1.11434e-07 8.302e-08 3.06588e-09) (-2.03696e-09 1.2845e-09 1.15596e-07))
5((-1.83967e-08 1.48759e-07 5.2579e-08) (4.47235e-08 -3.87706e-07 6.26127e-08) (-2.43037e-07 -1.79366e-07 1.86695e-08) (2.80174e-07 -1.21245e-07 -2.26765e-09) (9.47802e-08 -4.09478e-08 -3.05459e-08))
4((-2.40041e-08 2.24307e-07 -3.06919e-09) (2.43037e-07 1.79366e-07 -1.86695e-08) (1.52693e-07 -1.26208e-09 -1.00881e-08) (-1.18194e-08 9.20444e-08 3.05635e-08))
4((-4.488e-09 3.65187e-08 -7.95054e-09) (1.40791e-08 -6.84497e-09 1.45747e-08) (-9.47802e-08 4.09478e-08 3.05459e-08) (1.18194e-08 -9.20444e-08 -3.05635e-08))
4((-8.0472e-08 6.90343e-07 -7.82467e-08) (-4.47235e-08 3.87706e-07 -6.26127e-08) (6.7192e-07 -2.90069e-07 6.30966e-08) (4.35743e-07 -1.88789e-07 5.11409e-08))
5((8.0472e-08 -6.90343e-07 7.82467e-08) (2.15124e-08 -2.09109e-07 8.29508e-08) (-5.20614e-08 2.39514e-08 3.98988e-08) (-2.30588e-08 -1.70668e-08 -2.97685e-08) (4.46164e-07 -1.93963e-07 3.61419e-08))
5((-9.28421e-08 8.11521e-07 -3.10785e-08) (4.488e-09 -3.65187e-08 7.95054e-09) (-6.7192e-07 2.90069e-07 -6.30966e-08) (2.30588e-08 1.70668e-08 2.97685e-08) (1.24476e-07 -1.571e-08 -2.64775e-08))
4((-2.15124e-08 2.09109e-07 -8.29508e-08) (-1.05032e-07 4.28378e-07 -6.27721e-08) (4.26254e-07 3.16285e-07 -4.52843e-08) (1.617e-07 -7.02368e-08 -1.00491e-09))
4((1.51577e-08 -2.49569e-07 4.6746e-08) (1.05032e-07 -4.28378e-07 6.27721e-08) (1.48245e-07 1.09142e-07 -7.1261e-09) (-9.71786e-09 4.50705e-09 3.83674e-09))
4((-1.51577e-08 2.49569e-07 -4.6746e-08) (-2.11838e-08 1.11816e-07 -4.95362e-08) (1.74309e-07 1.3651e-07 4.40026e-08) (-9.4376e-09 2.90286e-09 -7.04662e-09))
5((4.38225e-08 -1.51369e-08 -2.35564e-08) (2.80998e-07 -1.12032e-07 2.42686e-08) (-1.74309e-07 -1.3651e-07 -4.40026e-08) (2.84115e-09 -2.11918e-08 -6.27215e-08) (1.84475e-08 1.35922e-08 2.03272e-08))
4((-1.87479e-07 7.69797e-08 -2.7442e-08) (3.32952e-08 -1.30093e-08 2.20448e-08) (1.97331e-07 1.53231e-07 5.16469e-08) (-2.84115e-09 2.11918e-08 6.27215e-08))
4((2.11838e-08 -1.11816e-07 4.95362e-08) (-1.01117e-08 4.54615e-08 2.80069e-08) (-3.47458e-08 1.26921e-08 -1.06696e-09) (-2.80998e-07 1.12032e-07 -2.42686e-08))
5((1.01117e-08 -4.54615e-08 -2.80069e-08) (-4.06483e-08 1.52027e-08 -1.9194e-08) (-2.37638e-07 -1.88653e-07 -1.30019e-08) (-3.54233e-08 1.9956e-07 -2.62047e-08) (-3.32952e-08 1.30093e-08 -2.20448e-08))
3((5.07603e-07 4.06479e-07 2.04516e-08) (2.37638e-07 1.88653e-07 1.30019e-08) (-3.81322e-07 1.53553e-07 -2.55438e-08))
3((-2.0788e-08 7.3836e-09 8.19415e-09) (3.54233e-08 -1.9956e-07 2.62047e-08) (3.35129e-08 -2.16531e-07 2.90734e-08))
2((-4.62343e-09 1.79521e-09 1.0234e-08) (1.41713e-08 -5.48214e-09 3.35916e-09))
5((-1.65623e-07 -1.30351e-07 1.94764e-08) (-3.36097e-08 -2.6764e-08 1.19944e-08) (1.13298e-08 -7.75299e-08 2.03761e-08) (1.2244e-08 -4.7947e-09 -5.15987e-09) (-1.71805e-07 6.76914e-08 5.71454e-09))
4((1.9654e-08 1.49658e-08 -1.86016e-08) (-2.05742e-08 -1.79012e-08 -2.00387e-08) (-1.13298e-08 7.75299e-08 -2.03761e-08) (8.09484e-09 -3.23367e-09 1.46094e-09))
4((-1.9654e-08 -1.49658e-08 1.86016e-08) (-8.61202e-09 -4.0136e-09 1.199e-08) (-7.50976e-09 5.0451e-08 -1.69635e-08) (2.78128e-09 -1.87306e-08 6.34983e-09))
3((-4.16072e-08 -3.2928e-08 -2.30306e-09) (-3.54962e-08 -2.89153e-08 -1.64593e-08) (-1.54903e-09 1.03859e-08 4.69431e-09))
3((3.54962e-08 2.89153e-08 1.64593e-08) (5.04998e-08 4.03407e-08 1.97387e-08) (-2.78128e-09 1.87306e-08 -6.34983e-09))
4((1.29808e-08 1.02835e-08 7.92884e-10) (-5.65738e-08 -4.50001e-08 3.74177e-09) (1.54903e-09 -1.03859e-08 -4.69431e-09) (5.39596e-08 -2.14689e-08 -3.36669e-09))
4((-9.80742e-09 4.18549e-09 -8.00473e-09) (-1.29808e-08 -1.02835e-08 -7.92884e-10) (-1.53478e-07 6.08099e-08 -5.37645e-09) (-2.25202e-08 1.52907e-07 -1.96893e-09))
4((-1.33976e-07 5.5081e-08 7.68717e-09) (-1.60441e-07 6.30414e-08 1.39726e-08) (-2.42735e-09 -1.72763e-07 3.92798e-09) (2.25202e-08 -1.52907e-07 1.96893e-09))
3((9.80742e-09 -4.18549e-09 8.00473e-09) (5.24648e-08 -2.11608e-08 -2.60595e-09) (-8.5417e-09 -6.78523e-09 -7.04705e-10))
4((-1.53216e-08 5.72271e-09 2.47032e-08) (2.42735e-09 1.72763e-07 -3.92798e-09) (1.7001e-07 -4.33359e-09 1.30395e-08) (-1.81155e-08 -9.98914e-08 -2.12282e-08))
3((1.53216e-08 -5.72271e-09 -2.47032e-08) (9.06566e-08 4.99558e-08 -1.19455e-08) (1.69099e-08 9.38965e-08 1.78902e-08))
3((3.91921e-08 1.52883e-08 3.43006e-08) (1.81155e-08 9.98914e-08 2.12282e-08) (0 0 0))
4((-1.60088e-08 -5.9005e-08 -2.9411e-08) (-1.69099e-08 -9.38965e-08 -1.78902e-08) (0 0 0) (1.36528e-07 4.24474e-08 -1.96308e-09))
4((1.60088e-08 5.9005e-08 2.9411e-08) (5.50982e-08 1.01278e-07 6.52915e-09) (-7.01448e-09 1.15299e-08 -3.5964e-08) (-3.5453e-08 6.85644e-09 1.93446e-08))
4((-7.22544e-08 -5.91327e-10 2.80039e-08) (-5.3668e-08 -1.52875e-09 5.92286e-08) (-7.67115e-08 -1.36927e-07 -3.45578e-08) (-5.50982e-08 -1.01278e-07 -6.52915e-09))
3((9.8777e-08 -6.11713e-10 -2.63306e-08) (3.45322e-07 2.5211e-10 -5.65987e-10) (7.67115e-08 1.36927e-07 3.45578e-08))
2((-9.8777e-08 6.11713e-10 2.63306e-08) (-6.86063e-08 -1.14343e-09 4.01879e-08))
2((2.26031e-08 -7.58048e-09 -6.61034e-09) (-9.35205e-09 -1.54556e-07 -2.98136e-08))
2((-2.90322e-09 1.4807e-08 2.95266e-09) (3.76154e-07 -3.88173e-11 1.08147e-08))
5((-2.28195e-07 -7.8509e-08 4.10647e-09) (-1.52554e-07 4.81282e-08 -9.6237e-09) (1.40624e-09 -6.18354e-09 -2.42055e-09) (-6.56045e-08 -6.1333e-08 2.81429e-08) (9.35205e-09 1.54556e-07 2.98136e-08))
4((6.63555e-08 -2.51906e-07 9.91416e-09) (2.90322e-09 -1.4807e-08 -2.95266e-09) (2.28195e-07 7.8509e-08 -4.10647e-09) (-5.88226e-08 1.55054e-11 5.8973e-09))
3((-1.40624e-09 6.18354e-09 2.42055e-09) (1.70977e-08 3.48132e-08 -4.4792e-09) (2.80246e-08 -2.36212e-08 2.64171e-09))
3((-2.94388e-08 5.15499e-08 -1.81031e-08) (-6.63555e-08 2.51906e-07 -9.91416e-09) (-3.29857e-07 2.88705e-10 -8.81191e-09))
4((2.94388e-08 -5.15499e-08 1.81031e-08) (1.73884e-08 7.03355e-08 2.5709e-08) (1.07347e-07 -8.76263e-08 -1.60914e-08) (-2.80246e-08 2.36212e-08 -2.64171e-09))
3((-1.73884e-08 -7.03355e-08 -2.5709e-08) (1.07938e-08 1.06347e-08 -2.73617e-08) (1.10271e-07 -8.85832e-08 -5.52308e-09))
4((4.87958e-09 4.04378e-08 1.543e-08) (-1.07938e-08 -1.06347e-08 2.73617e-08) (-1.2041e-07 9.76293e-08 -1.17859e-08) (1.14724e-07 4.45058e-08 3.59391e-08))
4((-5.31944e-08 -8.14783e-08 1.46874e-08) (1.56822e-09 1.77909e-08 1.10539e-09) (-1.2162e-07 -4.68497e-08 1.0695e-08) (2.16382e-08 -1.51918e-08 4.49997e-09))
4((-3.56716e-09 -3.4973e-08 -1.06832e-08) (-4.87958e-09 -4.04378e-08 -1.543e-08) (9.99651e-08 3.8791e-08 -1.1968e-08) (1.2162e-07 4.68497e-08 -1.0695e-08))
3((-1.56822e-09 -1.77909e-08 -1.10539e-09) (-2.68701e-09 -1.98902e-08 9.62084e-10) (-2.43186e-08 -1.13852e-08 -2.19879e-09))
3((3.56716e-09 3.4973e-08 1.06832e-08) (1.09467e-08 8.86102e-08 4.06213e-09) (-1.21157e-07 -4.67919e-08 -1.94518e-10))
4((2.68701e-09 1.98902e-08 -9.62084e-10) (-7.11676e-10 -4.73272e-09 1.38418e-08) (3.91996e-08 1.47338e-08 3.50653e-08) (4.88329e-08 1.8746e-08 1.41061e-08))
4((1.7364e-07 6.61342e-08 9.00139e-09) (1.62353e-07 6.18067e-08 4.90724e-09) (7.11676e-10 4.73272e-09 -1.38418e-08) (-1.12516e-08 9.08902e-09 1.62094e-08))
5((1.25094e-07 5.24029e-08 1.45543e-08) (-1.1392e-07 -3.87973e-08 8.2086e-09) (2.81062e-07 -2.2634e-07 4.0978e-08) (-5.00101e-08 4.11945e-08 1.03397e-08) (9.9149e-09 5.61875e-08 -3.56868e-08))
5((3.42873e-07 -2.88113e-07 3.11823e-08) (1.28464e-07 5.80912e-08 -6.94665e-09) (-2.37924e-07 1.93976e-07 2.32755e-09) (-5.48837e-07 -2.07407e-07 -3.15535e-08) (-9.9149e-09 -5.61875e-08 3.56868e-08))
4((2.51523e-07 8.70378e-08 2.93558e-08) (5.48837e-07 2.07407e-07 3.15535e-08) (-2.81062e-07 2.2634e-07 -4.0978e-08) (1.87083e-08 1.20214e-07 1.87353e-09))
4((4.32641e-08 1.76976e-08 4.2332e-08) (6.54086e-08 3.21145e-08 4.11093e-08) (-7.72466e-08 6.99609e-08 2.52158e-08) (-9.38014e-08 7.87308e-08 1.90706e-08))
4((-4.32641e-08 -1.76976e-08 -4.2332e-08) (-3.42873e-07 2.88113e-07 -3.11823e-08) (-3.60058e-07 2.95518e-07 -3.57818e-08) (3.96713e-08 1.41923e-08 6.35347e-09))
4((2.07616e-07 9.50588e-08 1.3541e-08) (2.95014e-07 1.22755e-07 -5.00225e-10) (7.72466e-08 -6.99609e-08 -2.52158e-08) (-1.14063e-08 9.53109e-09 2.18537e-09))
4((-1.00171e-07 -3.24302e-08 -1.01894e-08) (-2.07616e-07 -9.50588e-08 -1.3541e-08) (5.41207e-08 -4.65627e-08 -7.38247e-09) (-4.11025e-09 3.65706e-09 -9.46227e-10))
3((-5.41207e-08 4.65627e-08 7.38247e-09) (-6.07405e-08 5.19886e-08 2.69423e-09) (-1.65454e-08 -7.03818e-09 -6.43433e-09))
4((1.88081e-07 -1.95789e-07 -3.01428e-09) (2.67755e-07 -2.22987e-07 4.13256e-09) (1.41876e-08 8.24603e-08 -2.25464e-08) (-4.26397e-08 -1.57573e-08 -2.87342e-09))
3((-2.35797e-07 -8.9758e-08 4.30609e-08) (-2.48465e-07 -9.15804e-08 3.38749e-08) (-4.1523e-08 5.188e-08 -4.14321e-09))
4((-8.08256e-08 6.86487e-08 -6.73184e-09) (2.35797e-07 8.9758e-08 -4.30609e-08) (-1.88081e-07 1.95789e-07 3.01428e-09) (1.01907e-07 3.91245e-08 -4.27888e-08))
4((-1.62412e-07 -6.33443e-08 3.40893e-09) (-9.71746e-08 -3.5374e-08 -9.09962e-09) (-1.41876e-08 -8.24603e-08 2.25464e-08) (6.15595e-08 -5.11668e-08 -2.08244e-09))
3((-9.18957e-08 5.97798e-08 -2.54257e-09) (-1.85879e-07 -6.97433e-08 -4.5214e-09) (4.1523e-08 -5.188e-08 4.14321e-09))
3((4.93859e-08 -4.45189e-08 2.92352e-08) (-2.77831e-08 1.42163e-08 -3.67441e-09) (-6.77772e-08 -2.576e-08 -3.08997e-08))
3((9.34621e-08 -8.04571e-08 -2.31109e-08) (8.62364e-08 -9.23246e-08 -2.33714e-08) (1.50489e-08 6.55192e-09 3.0195e-08))
3((-8.62364e-08 9.23246e-08 2.33714e-08) (-1.77716e-07 8.7815e-08 6.37935e-09) (-1.79026e-08 -9.94918e-08 2.3575e-08))
4((-1.3599e-08 6.44724e-09 6.51169e-10) (-6.4956e-09 5.78716e-09 1.79059e-09) (-1.16896e-08 -4.21735e-09 -1.26436e-08) (3.16908e-10 1.76235e-09 1.65765e-09))
4((1.3599e-08 -6.44724e-09 -6.51169e-10) (-1.27342e-07 6.28299e-08 -6.45779e-10) (-1.85612e-08 -1.02499e-07 -8.53292e-09) (1.79026e-08 9.94918e-08 -2.3575e-08))
3((8.90891e-08 -7.51985e-08 1.11072e-08) (9.97913e-08 -5.63387e-08 1.44938e-08) (-3.16908e-10 -1.76235e-09 -1.65765e-09))
4((3.25324e-08 1.80619e-07 6.49351e-11) (1.85612e-08 1.02499e-07 8.53292e-09) (-9.97913e-08 5.63387e-08 -1.44938e-08) (-1.17826e-08 5.88574e-09 -4.91661e-09))
5((1.96795e-08 -1.00524e-08 1.99645e-08) (-7.08656e-08 -4.3695e-08 1.24065e-08) (-3.25324e-08 -1.80619e-07 -6.49351e-11) (-7.38334e-08 4.10125e-08 1.02562e-08) (-1.57123e-10 3.81608e-09 -9.65025e-09))
2((7.77445e-08 3.23285e-08 -1.24162e-08) (7.08656e-08 4.3695e-08 -1.24065e-08))
2((1.2377e-09 6.60447e-10 2.33988e-09) (1.57123e-10 -3.81608e-09 9.65025e-09))
2((7.47151e-09 2.53481e-09 -4.00378e-09) (-1.2377e-09 -6.60447e-10 -2.33988e-09))
2((-1.76694e-08 -1.08202e-08 -1.20631e-10) (-1.66342e-08 -1.11324e-08 3.24614e-09))
2((2.32258e-08 8.08225e-09 1.95296e-09) (1.76694e-08 1.08202e-08 1.20631e-10))
3((-1.06257e-07 -8.83153e-08 2.97165e-08) (-2.58241e-07 -1.8774e-07 3.30683e-08) (-3.26104e-08 3.11153e-07 6.4263e-09))
2((2.58241e-07 1.8774e-07 -3.30683e-08) (2.86187e-07 1.3029e-07 -3.4802e-08))
4((-4.52569e-08 -3.24279e-08 2.84245e-09) (2.38089e-07 -1.36085e-07 -1.06529e-08) (3.26104e-08 -3.11153e-07 -6.4263e-09) (-3.12864e-09 -2.08499e-09 -6.00379e-10))
2((5.01156e-08 1.7652e-08 -1.84899e-09) (4.52569e-08 3.24279e-08 -2.84245e-09))
3((-2.59251e-07 -1.94128e-07 1.84263e-08) (-1.36931e-07 -9.87134e-08 -2.02899e-10) (-2.11604e-07 1.07831e-07 2.68006e-08))
3((2.59251e-07 1.94128e-07 -1.84263e-08) (4.25297e-07 1.43881e-07 -2.23402e-08) (1.82191e-07 -9.02577e-08 -5.46154e-09))
3((-1.52693e-07 1.26208e-09 1.00881e-08) (-5.30227e-08 2.36572e-08 1.58212e-08) (-1.31425e-07 -1.05769e-07 -5.89624e-09))
3((-1.40791e-08 6.84497e-09 -1.45747e-08) (-3.63555e-08 -2.7411e-08 -4.28048e-09) (3.37861e-08 -1.73387e-08 -1.29891e-08))
3((-1.24476e-07 1.571e-08 2.64775e-08) (-1.01369e-07 5.23474e-08 2.27608e-08) (-2.9416e-08 -2.2851e-08 1.34354e-08))
5((9.28421e-08 -8.11521e-07 3.10785e-08) (1.24747e-08 -9.41544e-08 2.4493e-08) (-4.26254e-07 -3.16285e-07 4.52843e-08) (-2.46642e-07 3.7658e-08 1.45708e-08) (-4.46164e-07 1.93963e-07 -3.61419e-08))
3((2.46642e-07 -3.7658e-08 -1.45708e-08) (6.25923e-08 -3.87051e-08 -1.33817e-08) (2.01882e-07 1.57699e-07 -2.85823e-09))