/*--------------------------------*- C++ -*----------------------------------*\
  =========                 |
  \\      /  F ield         | OpenFOAM: The Open Source CFD Toolbox
   \\    /   O peration     | Website:  https://openfoam.org
    \\  /    A nd           | Version:  8
     \\/     M anipulation  |
\*---------------------------------------------------------------------------*/
FoamFile
{
    version     2.0;
    format      ascii;
    class       vectorFieldField;
    location    "0/lagrangian/kinematicCloud";
    object      collisionRecordsWallData;
}
// * * * * * * * * * * * * * * * * * * * * * * * * * * * * * * * * * * * * * //


1578
(
2((8.16698e-25 -2.46418e-07 -4.03123e-09) (0 0 0))
1((0 0 0))
1((0 0 0))
1((0 0 0))
0()
1((0 0 0))
1((6.13592e-10 4.19055e-09 -7.20705e-25))
0()
0()
1((0 0 0))
0()
0()
0()
0()
1((-9.9226e-09 -3.91459e-09 1.09073e-26))
1((-1.23637e-09 -1.76998e-08 1.1543e-23))
1((0 0 0))
1((2.54117e-10 6.53377e-09 2.90185e-24))
1((1.93619e-09 -1.23326e-08 3.22981e-24))
1((0 0 0))
1((-3.44127e-09 -5.47186e-09 -2.90417e-24))
1((6.63146e-09 2.05783e-10 0))
1((-4.17202e-09 -6.15693e-09 0))
1((-4.01041e-09 -3.20304e-09 0))
1((2.35602e-09 -4.05173e-09 0))
1((-4.08403e-09 -1.3176e-09 6.32064e-24))
1((8.69719e-09 -8.21546e-09 0))
1((1.33632e-09 1.09735e-09 0))
0()
1((0 0 0))
0()
1((0 0 0))
0()
0()
1((1.31631e-09 -8.16059e-10 0))
1((-2.20922e-09 -4.8758e-09 1.25752e-24))
0()
0()
0()
1((0 0 0))
0()
1((5.27048e-10 -4.12773e-09 0))
0()
0()
1((1.15023e-08 -9.09552e-09 0))
0()
1((1.31445e-08 1.98326e-09 0))
1((2.1845e-09 -4.5765e-09 0))
1((1.31335e-08 -4.69959e-09 0))
1((2.75289e-09 -6.01981e-10 0))
1((-1.35901e-08 -7.1656e-09 2.25992e-24))
1((0 0 0))
1((5.62665e-09 -5.39477e-10 0))
0()
1((0 0 0))
0()
1((5.32799e-09 -3.48601e-09 0))
1((6.30144e-09 1.22663e-10 0))
1((-6.42356e-09 1.65384e-09 0))
1((7.69532e-09 -7.29936e-09 0))
1((0 0 0))
1((-1.37589e-08 -7.23668e-09 0))
1((0 0 0))
1((-6.27576e-09 1.83134e-09 0))
1((2.13722e-09 -7.5628e-09 0))
1((0 0 0))
0()
0()
0()
1((0 0 0))
0()
1((5.3976e-09 -7.89925e-09 0))
1((0 0 0))
1((0 0 0))
1((0 0 0))
1((0 0 0))
2((-5.27173e-26 -1.67631e-07 -5.77354e-09) (-2.00176e-09 6.83201e-09 0))
0()
1((9.11418e-27 8.33341e-09 2.86566e-09))
0()
0()
1((0 0 0))
0()
1((1.39169e-09 6.57641e-09 0))
1((1.8609e-10 -2.69577e-09 0))
1((7.87983e-10 1.32177e-09 0))
1((9.35908e-10 -4.02884e-10 0))
1((-9.16647e-10 -3.04042e-09 0))
1((6.58164e-09 -3.18433e-09 1.04862e-25))
1((0 0 0))
1((-1.20426e-08 -1.13517e-08 1.08019e-25))
1((-1.80506e-08 -1.58413e-08 0))
1((4.81084e-09 -2.39556e-08 0))
1((9.79794e-09 -7.93517e-09 0))
1((-3.47127e-09 -8.84625e-09 -9.41945e-24))
1((1.15745e-08 1.27335e-08 7.91201e-24))
0()
1((0 0 0))
0()
1((1.45149e-09 -5.62952e-10 0))
0()
1((0 0 0))
1((-6.64386e-09 -3.80122e-09 0))
1((0 0 0))
1((8.27786e-09 -7.75088e-09 0))
0()
1((0 0 0))
0()
1((3.44924e-09 4.68813e-11 0))
1((-1.19782e-10 -2.01663e-09 0))
1((2.66221e-09 -9.80279e-10 0))
0()
0()
1((0 0 0))
1((4.17477e-09 -1.23155e-09 0))
1((3.22862e-09 1.64774e-09 0))
1((0 0 0))
1((8.75495e-10 -1.03395e-08 0))
1((1.3252e-08 -7.95866e-09 0))
1((-4.18269e-10 -2.19426e-09 0))
1((7.70007e-09 -6.79717e-09 0))
0()
1((0 0 0))
1((9.54405e-09 -4.768e-09 0))
1((0 0 0))
0()
1((1.49526e-08 -7.81045e-09 -2.14815e-24))
0()
1((9.80365e-09 -2.03629e-08 0))
1((2.87399e-08 -1.57126e-08 0))
1((8.58514e-09 -6.49602e-09 0))
1((0 0 0))
0()
1((2.12075e-09 -2.99346e-09 0))
1((0 0 0))
1((-2.87638e-09 9.53605e-09 0))
1((0 0 0))
1((0 0 0))
0()
1((0 0 0))
1((0 0 0))
0()
0()
0()
0()
1((0 0 0))
0()
1((0 0 0))
0()
0()
1((0 0 0))
0()
1((0 0 0))
2((4.22687e-09 1.0181e-09 0) (1.3582e-24 -9.08211e-08 2.76543e-08))
2((-3.32716e-09 -3.23104e-09 0) (1.93627e-26 -2.39467e-08 7.89076e-09))
0()
2((-1.36711e-23 -1.11379e-07 4.82573e-11) (0 0 0))
1((4.47572e-09 -3.33791e-09 -1.57536e-25))
1((-2.73589e-09 -1.83013e-09 0))
1((0 0 0))
1((1.39188e-09 5.25406e-09 0))
1((-1.10393e-09 -4.83429e-09 -4.50813e-25))
1((-1.37642e-09 -2.35764e-09 0))
0()
1((2.07029e-09 -1.0832e-09 0))
1((0 0 0))
1((3.77147e-09 -1.19771e-09 0))
1((8.5494e-09 8.98711e-09 0))
1((0 0 0))
1((6.21842e-09 -2.26548e-09 0))
1((9.60415e-09 -1.36691e-08 0))
1((0 0 0))
1((1.57456e-09 -4.77185e-09 0))
1((-1.50204e-09 1.37369e-09 -1.81113e-25))
1((-7.64742e-10 -3.06481e-09 0))
1((0 0 0))
1((-9.3979e-09 -8.44609e-09 0))
0()
0()
1((9.99891e-09 2.80115e-09 0))
0()
1((0 0 0))
1((0 0 0))
0()
1((0 0 0))
1((0 0 0))
1((7.08632e-09 -3.85141e-09 0))
1((6.2738e-09 -3.04109e-09 2.87312e-23))
1((1.41477e-09 -1.10185e-09 0))
1((0 0 0))
1((0 0 0))
1((0 0 0))
0()
1((0 0 0))
1((1.52621e-09 -1.68011e-09 0))
1((0 0 0))
1((0 0 0))
1((0 0 0))
1((0 0 0))
0()
1((6.24381e-09 -6.21311e-09 0))
1((7.3584e-09 -4.51868e-09 0))
1((0 0 0))
0()
0()
1((3.66183e-09 -1.67454e-09 0))
1((0 0 0))
1((1.27788e-08 -7.88421e-09 2.03751e-23))
1((6.81621e-09 -2.5401e-09 0))
0()
1((0 0 0))
1((-1.29801e-09 1.3807e-09 0))
1((0 0 0))
1((0 0 0))
0()
1((1.4754e-10 1.25792e-09 0))
1((1.78859e-08 -4.02393e-09 0))
1((6.28817e-09 -7.71617e-09 0))
1((0 0 0))
0()
0()
0()
0()
1((1.3876e-09 -6.47257e-09 0))
1((0 0 0))
0()
0()
0()
1((0 0 0))
2((4.67867e-21 -2.52777e-07 -2.35025e-08) (9.38731e-09 -5.09716e-09 0))
2((-5.54984e-25 -9.30352e-08 1.09264e-08) (0 0 0))
1((0 0 0))
1((-3.27996e-09 3.03282e-09 0))
0()
0()
1((1.90778e-09 -3.34919e-09 0))
0()
1((-7.44503e-10 -1.25541e-08 -6.08936e-25))
0()
1((0 0 0))
1((-2.28811e-10 -3.92922e-09 0))
1((4.48157e-10 -1.08486e-08 0))
1((3.03374e-09 -1.23546e-08 0))
1((0 0 0))
1((0 0 0))
1((-5.25168e-09 -1.62685e-08 0))
1((0 0 0))
1((-3.95405e-09 -3.43736e-09 -9.11665e-24))
1((-1.27912e-09 -1.6933e-09 0))
0()
0()
1((0 0 0))
1((0 0 0))
0()
1((5.69103e-09 -1.38803e-09 0))
1((0 0 0))
1((0 0 0))
1((0 0 0))
1((2.79629e-09 -1.16064e-08 0))
1((1.09312e-08 -8.60651e-09 2.21006e-23))
1((3.74674e-09 8.85049e-09 0))
0()
1((5.16279e-09 -9.4554e-10 1.55739e-23))
0()
1((2.94364e-09 -1.92797e-09 0))
1((0 0 0))
1((7.19063e-09 -5.73129e-09 0))
1((-2.1988e-09 -1.4703e-09 0))
1((1.02809e-08 -5.49558e-09 0))
1((6.41157e-09 -7.85606e-09 0))
1((-3.37995e-09 -1.11941e-08 0))
1((9.852e-10 2.74301e-10 0))
1((0 0 0))
1((-2.00837e-09 -4.80445e-09 0))
1((1.17028e-09 -1.19745e-09 0))
1((-1.26465e-09 -2.10937e-09 0))
0()
1((1.10966e-09 2.96694e-09 0))
1((2.8786e-09 -1.88957e-09 0))
1((8.84461e-10 -2.28744e-09 0))
1((4.48257e-09 -1.65243e-09 0))
1((0 0 0))
1((1.61903e-08 -1.73287e-09 3.80406e-25))
0()
1((7.46302e-09 1.13994e-09 0))
1((0 0 0))
1((1.22073e-08 8.43122e-10 2.66127e-23))
0()
1((0 0 0))
1((2.81742e-09 -1.9313e-09 0))
1((6.90991e-09 1.61187e-09 0))
0()
1((0 0 0))
1((0 0 0))
1((0 0 0))
1((0 0 0))
1((0 0 0))
0()
1((0 0 0))
0()
1((-2.42555e-22 -1.29941e-08 -2.2853e-08))
2{(0 0 0)}
0()
0()
0()
1((0 0 0))
0()
1((-9.83503e-10 9.78446e-10 0))
1((2.73045e-09 1.57915e-09 0))
0()
1((4.21457e-09 -2.32806e-09 0))
1((0 0 0))
0()
0()
1((2.2706e-10 -5.40088e-09 -5.18016e-25))
0()
1((2.2877e-09 -6.36092e-09 0))
0()
1((0 0 0))
0()
1((9.19529e-09 -1.19911e-08 4.03131e-24))
1((-4.58107e-09 -1.41569e-08 3.09037e-24))
0()
1((0 0 0))
1((0 0 0))
0()
0()
0()
1((0 0 0))
0()
0()
1((0 0 0))
0()
1((0 0 0))
0()
1((0 0 0))
0()
1((2.88364e-09 -1.16928e-09 0))
1((0 0 0))
1((2.51808e-09 -4.25003e-09 0))
1((0 0 0))
1((3.41182e-10 5.00312e-10 0))
1((-5.67914e-09 -7.03371e-10 7.06241e-24))
1((0 0 0))
1((0 0 0))
1((1.29336e-09 -1.67018e-09 0))
0()
1((3.17536e-10 -7.27405e-10 0))
1((-6.76882e-10 -1.23336e-10 0))
1((8.81923e-09 -9.34348e-09 0))
1((0 0 0))
0()
1((3.84654e-09 -3.20936e-09 0))
1((3.95671e-10 -6.32257e-09 0))
0()
1((0 0 0))
1((0 0 0))
0()
1((3.56823e-09 -1.46338e-10 0))
1((1.67473e-09 -1.18288e-09 0))
0()
1((-2.25133e-09 -1.74776e-09 6.63289e-24))
1((0 0 0))
0()
0()
1((0 0 0))
1((0 0 0))
1((0 0 0))
1((0 0 0))
0()
0()
1((0 0 0))
0()
1((0 0 0))
0()
0()
2{(0 0 0)}
0()
2((2.3716e-27 -2.98229e-08 -1.89502e-09) (0 0 0))
0()
0()
0()
0()
0()
1((0 0 0))
1((3.51221e-09 -1.38926e-09 0))
1((0 0 0))
1((0 0 0))
1((0 0 0))
1((0 0 0))
1((0 0 0))
1((5.14232e-09 -9.11369e-09 0))
1((8.23144e-09 -1.0843e-08 0))
1((1.39077e-09 -5.16169e-09 0))
0()
1((-1.1392e-08 -4.9845e-09 1.17074e-24))
0()
1((1.58539e-08 -1.74587e-08 0))
1((6.23023e-09 -1.44694e-08 0))
1((0 0 0))
1((3.0519e-09 3.39261e-09 0))
0()
1((0 0 0))
1((5.48084e-10 -1.35235e-09 0))
1((6.3323e-09 -7.84408e-09 0))
1((0 0 0))
1((0 0 0))
1((0 0 0))
0()
1((0 0 0))
1((0 0 0))
1((0 0 0))
0()
1((0 0 0))
1((0 0 0))
1((7.73427e-09 -5.78959e-09 0))
0()
1((9.58511e-10 -3.84317e-09 0))
1((1.9635e-09 -2.15814e-10 0))
1((0 0 0))
1((0 0 0))
0()
1((-3.47497e-10 -6.13172e-09 0))
1((2.22187e-09 -2.29583e-09 0))
1((0 0 0))
1((0 0 0))
1((0 0 0))
0()
1((-5.30981e-10 -9.6681e-09 0))
1((-1.62163e-09 -7.47425e-09 0))
1((4.91545e-10 4.25565e-10 6.08886e-26))
1((6.99694e-09 -6.48598e-09 2.06019e-24))
0()
0()
1((0 0 0))
1((1.87607e-08 -6.38748e-09 0))
0()
1((9.37064e-09 -6.88999e-09 8.95001e-24))
1((0 0 0))
1((0 0 0))
1((0 0 0))
1((0 0 0))
1((0 0 0))
0()
1((1.65294e-09 -5.24594e-09 0))
1((-5.87483e-09 -4.21998e-09 0))
1((0 0 0))
0()
0()
0()
0()
0()
1((-5.2347e-09 5.39904e-09 0))
1((0 0 0))
1((0 0 0))
2((1.97453e-21 -1.06797e-07 1.79492e-08) (0 0 0))
2((2.45886e-23 -1.07465e-07 1.06021e-08) (2.47074e-10 3.77774e-09 0))
1((0 0 0))
0()
1((0 0 0))
1((0 0 0))
1((0 0 0))
1((0 0 0))
1((0 0 0))
1((0 0 0))
1((0 0 0))
1((0 0 0))
1((1.09221e-09 -5.91156e-09 0))
0()
0()
1((1.40962e-09 -5.32159e-09 0))
1((0 0 0))
1((8.25253e-09 -1.52424e-08 1.36432e-24))
1((-2.71347e-09 -1.61235e-09 0))
1((-1.17095e-09 -3.72215e-09 0))
1((4.27587e-10 -8.85339e-09 0))
1((0 0 0))
1((3.97483e-09 -2.07603e-09 0))
1((7.05201e-10 -5.0333e-09 0))
1((2.01868e-09 6.11875e-09 0))
0()
1((0 0 0))
1((0 0 0))
1((0 0 0))
0()
1((0 0 0))
1((0 0 0))
1((0 0 0))
1((7.12273e-10 -4.18382e-09 0))
0()
1((0 0 0))
1((0 0 0))
1((5.03081e-09 4.09463e-09 8.05503e-25))
0()
1((0 0 0))
1((6.05278e-10 2.12794e-09 0))
1((0 0 0))
1((5.37258e-09 -2.05407e-09 0))
1((3.36916e-09 -1.39462e-09 0))
1((0 0 0))
1((-8.38979e-11 2.53804e-09 0))
1((1.32012e-09 8.65272e-10 0))
1((0 0 0))
1((2.1312e-09 -1.16122e-09 0))
1((0 0 0))
1((0 0 0))
1((0 0 0))
0()
1((0 0 0))
0()
1((0 0 0))
1((0 0 0))
1((0 0 0))
1((0 0 0))
0()
0()
1((0 0 0))
1((0 0 0))
1((-1.34319e-08 -2.0752e-09 0))
0()
0()
0()
1((1.00214e-08 -6.34818e-09 0))
0()
0()
1((0 0 0))
1((-3.81979e-21 -2.06439e-07 -1.29546e-08))
1((-1.47249e-09 2.15329e-09 -1.18736e-24))
1((1.17472e-23 -1.15813e-07 2.06457e-09))
1((0 0 0))
1((0 0 0))
0()
1((0 0 0))
1((6.41421e-09 9.07025e-10 0))
0()
1((9.85893e-10 -6.43473e-09 0))
1((-1.48633e-09 -7.83253e-09 0))
1((0 0 0))
1((-4.02562e-10 -2.68059e-09 0))
0()
1((3.18735e-09 -3.66348e-09 0))
0()
1((-2.58224e-09 -8.35483e-09 4.06828e-24))
1((-4.67973e-09 -5.11163e-09 0))
0()
1((1.38595e-08 -1.29603e-08 0))
1((5.34006e-11 -1.56968e-08 0))
1((-1.07402e-09 -5.14028e-09 0))
1((0 0 0))
1((0 0 0))
1((2.94615e-09 -4.06559e-09 0))
1((0 0 0))
0()
0()
0()
1((0 0 0))
0()
1((0 0 0))
1((0 0 0))
1((0 0 0))
1((0 0 0))
1((0 0 0))
0()
0()
1((-9.71651e-09 -8.55322e-09 0))
1((3.69796e-09 -4.58551e-09 -5.34196e-25))
0()
1((0 0 0))
1((0 0 0))
0()
1((3.87164e-09 7.14672e-10 0))
1((1.77666e-09 -1.12097e-08 -2.13731e-24))
1((-6.1873e-10 -2.4269e-09 0))
1((0 0 0))
0()
0()
1((0 0 0))
1((1.3238e-09 -3.83581e-09 0))
1((0 0 0))
0()
0()
1((4.75983e-10 -2.78386e-09 0))
1((0 0 0))
1((3.43658e-09 -3.7906e-09 0))
0()
1((6.22446e-09 -4.323e-09 0))
1((9.90662e-09 -6.61626e-09 0))
0()
1((0 0 0))
1((0 0 0))
0()
1((7.42476e-09 -1.53402e-08 5.99447e-25))
1((1.90075e-08 -8.55574e-09 0))
1((0 0 0))
0()
0()
1((8.12238e-09 1.10406e-09 0))
1((0 0 0))
1((0 0 0))
1((0 0 0))
1((4.81649e-09 -2.20162e-08 0))
0()
1((3.46016e-10 -3.85325e-09 0))
0()
1((-1.02993e-24 -6.26328e-08 1.18239e-08))
1((0 0 0))
1((4.13229e-09 1.15973e-09 4.99018e-25))
1((3.23842e-09 2.83138e-09 0))
1((0 0 0))
1((6.30447e-09 -1.85552e-09 0))
1((0 0 0))
1((3.55735e-09 -7.3619e-09 0))
1((2.84121e-09 -1.61131e-09 0))
1((5.70619e-09 -4.18287e-09 0))
1((9.44859e-10 -7.51116e-09 0))
1((0 0 0))
1((3.00103e-10 -1.14985e-08 0))
1((0 0 0))
0()
0()
1((7.20154e-09 -8.21253e-09 0))
1((9.47196e-10 -2.18822e-09 0))
0()
1((-3.42368e-09 3.34752e-09 0))
0()
1((0 0 0))
1((0 0 0))
1((1.39253e-09 -6.20336e-09 0))
1((-3.37754e-09 -3.04805e-09 0))
1((0 0 0))
1((-4.89782e-09 -4.8284e-10 0))
0()
0()
1((0 0 0))
1((3.72044e-09 -1.00358e-08 0))
1((-1.00544e-09 -6.44165e-09 0))
1((0 0 0))
1((1.1155e-09 7.32932e-10 0))
0()
1((-1.60979e-09 3.24805e-10 1.309e-24))
1((0 0 0))
1((0 0 0))
1((0 0 0))
1((-1.54635e-09 -9.87792e-10 0))
1((-9.05978e-09 -6.13714e-09 0))
1((-1.11515e-09 -1.1163e-08 0))
1((4.8417e-09 4.06504e-09 0))
0()
0()
0()
0()
1((3.73394e-09 7.54617e-10 0))
0()
0()
0()
1((4.14536e-09 -3.05739e-09 0))
1((1.6883e-09 -2.7832e-09 0))
0()
1((7.01827e-09 -4.17417e-09 0))
1((3.3562e-09 -1.74734e-09 0))
0()
0()
1((0 0 0))
1((5.66162e-09 -2.39477e-09 0))
0()
1((2.64171e-09 -2.43545e-09 0))
0()
1((0 0 0))
1((-6.74501e-09 -4.59181e-09 0))
1((0 0 0))
0()
0()
1((0 0 0))
1((-1.10874e-08 -6.25443e-09 1.94917e-23))
1((-5.87821e-09 4.63206e-09 0))
1((-1.17305e-23 -3.51867e-07 -2.41809e-09))
0()
2((-9.71271e-25 -2.1687e-08 -7.79394e-09) (7.0945e-10 2.05569e-09 -1.01161e-25))
2((7.28872e-25 -6.29166e-08 -9.278e-09) (-6.86547e-10 4.48583e-09 7.55384e-26))
0()
0()
0()
0()
1((2.99766e-09 7.25895e-09 -1.71819e-24))
1((-4.10514e-09 -8.84068e-09 0))
1((0 0 0))
0()
1((5.59517e-09 -7.36293e-09 0))
1((1.90954e-10 -1.68127e-09 0))
1((-3.54496e-09 -8.89869e-09 0))
1((0 0 0))
1((0 0 0))
1((1.5094e-09 -6.47472e-09 0))
1((0 0 0))
1((-2.05504e-09 -6.0096e-09 0))
1((-2.34477e-09 -3.20761e-09 0))
1((-1.07253e-09 -2.54948e-09 0))
0()
1((0 0 0))
1((0 0 0))
0()
1((0 0 0))
1((0 0 0))
1((0 0 0))
1((-4.61123e-09 -1.14822e-08 0))
0()
0()
1((0 0 0))
1((0 0 0))
1((0 0 0))
1((6.63568e-09 2.02045e-09 0))
1((0 0 0))
0()
0()
1((0 0 0))
0()
0()
0()
0()
1((2.24279e-09 -1.6486e-09 0))
1((-1.17789e-09 -3.05098e-09 0))
1((0 0 0))
1((-8.20902e-09 -5.27408e-09 0))
1((-6.83371e-09 -5.60415e-09 0))
0()
1((-1.99074e-09 -8.22267e-09 0))
0()
0()
1((0 0 0))
1((1.17759e-09 -1.31825e-09 0))
0()
1((5.00631e-09 -2.88924e-09 0))
0()
0()
1((0 0 0))
0()
1((1.78669e-09 -2.07397e-09 0))
1((3.04727e-09 6.406e-11 0))
0()
1((0 0 0))
0()
1((3.96698e-09 -1.32798e-09 0))
1((5.08923e-10 -1.53924e-09 4.71197e-24))
1((0 0 0))
1((8.5744e-10 3.4717e-09 0))
0()
1((0 0 0))
0()
1((-2.64448e-09 -7.89871e-09 0))
1((0 0 0))
1((-3.03592e-09 8.89628e-09 1.96327e-23))
1((0 0 0))
1((0 0 0))
1((0 0 0))
1((0 0 0))
0()
0()
0()
1((-3.69567e-22 -1.99639e-08 -2.26055e-09))
1((3.15151e-25 2.47287e-08 -1.02138e-09))
0()
0()
1((-2.57199e-09 -1.16813e-08 0))
1((2.17856e-09 7.21504e-09 0))
1((4.26586e-10 5.38389e-09 0))
1((0 0 0))
1((4.26756e-09 1.35945e-10 0))
1((0 0 0))
1((3.70312e-10 -4.37314e-09 0))
1((-4.18862e-09 -3.94168e-09 0))
0()
1((-3.3879e-09 -1.68041e-09 0))
1((0 0 0))
1((4.08858e-09 -4.52953e-09 0))
1((0 0 0))
1((0 0 0))
0()
0()
1((0 0 0))
1((0 0 0))
0()
0()
1((0 0 0))
0()
1((0 0 0))
1((0 0 0))
1((0 0 0))
1((0 0 0))
0()
0()
1((1.32427e-09 -5.49494e-09 0))
0()
1((-6.19652e-09 -5.92004e-09 0))
1((-6.23495e-10 4.19521e-10 0))
0()
1((1.64951e-09 -5.22032e-09 0))
0()
1((0 0 0))
0()
0()
0()
1((5.65381e-09 -2.74918e-09 0))
0()
1((6.34325e-09 -3.96838e-09 0))
0()
1((0 0 0))
0()
1((0 0 0))
0()
1((0 0 0))
0()
1((0 0 0))
0()
0()
1((0 0 0))
1((0 0 0))
0()
0()
1((3.95051e-09 -2.43256e-09 0))
1((0 0 0))
1((0 0 0))
1((2.37926e-09 2.40375e-09 0))
1((0 0 0))
1((5.79923e-09 4.20268e-09 0))
1((0 0 0))
0()
0()
0()
2((-3.45469e-25 -9.20211e-08 -8.458e-09) (0 0 0))
1((0 -1.22037e-08 1.49677e-09))
1((3.51086e-24 9.97391e-10 -4.35218e-09))
1((0 0 0))
0()
0()
0()
1((0 0 0))
1((0 0 0))
0()
1((0 0 0))
1((-3.92702e-09 -2.08799e-09 0))
0()
1((6.70451e-09 -1.52389e-08 3.25943e-24))
1((0 0 0))
1((0 0 0))
0()
1((0 0 0))
0()
1((0 0 0))
1((0 0 0))
0()
0()
0()
0()
0()
0()
0()
0()
0()
1((0 0 0))
1((2.56609e-09 4.53509e-10 0))
0()
1((0 0 0))
0()
1((0 0 0))
1((0 0 0))
1((0 0 0))
1((0 0 0))
1((0 0 0))
1((0 0 0))
0()
0()
1((-4.03824e-09 -1.81658e-09 0))
1((-1.51364e-09 -2.99605e-09 6.99949e-24))
0()
0()
1((0 0 0))
1((0 0 0))
0()
1((3.88561e-09 -2.40491e-09 0))
0()
1((5.5972e-09 -4.07211e-09 0))
0()
1((6.83769e-09 -2.46461e-09 0))
1((0 0 0))
0()
0()
1((0 0 0))
0()
0()
1((0 0 0))
1((0 0 0))
0()
1((0 0 0))
0()
1((2.92029e-09 -9.90048e-10 0))
0()
1((0 0 0))
1((0 0 0))
1((7.49893e-09 -5.70006e-09 0))
1((0 0 0))
1((0 0 0))
0()
0()
0()
1((0 0 0))
1((2.87667e-09 -1.46341e-09 0))
1((0 0 0))
0()
0()
0()
1((5.81125e-24 -1.22627e-07 8.17383e-09))
2((5.29379e-26 -2.03092e-08 -1.81479e-09) (0 0 0))
2((-2.7424e-24 2.88204e-08 3.22138e-09) (0 0 0))
1((0 0 0))
1((0 0 0))
0()
0()
1((0 0 0))
1((0 0 0))
0()
0()
1((3.24625e-10 -3.15599e-09 0))
1((4.5867e-09 4.42328e-09 0))
1((-2.19416e-09 -3.34082e-09 0))
1((0 0 0))
1((-8.7854e-09 -1.32543e-08 0))
1((2.38208e-09 -1.90334e-09 0))
1((-8.11189e-09 1.06077e-09 0))
0()
1((9.31348e-12 -9.75407e-09 0))
1((0 0 0))
1((0 0 0))
0()
0()
1((0 0 0))
1((0 0 0))
1((0 0 0))
0()
0()
0()
1((0 0 0))
0()
0()
0()
1((0 0 0))
1((0 0 0))
1((0 0 0))
0()
0()
1((0 0 0))
0()
1((5.58831e-09 -3.18521e-09 0))
1((0 0 0))
1((0 0 0))
1((1.29832e-09 -1.74435e-09 0))
0()
0()
1((0 0 0))
0()
1((0 0 0))
0()
0()
0()
1((0 0 0))
0()
0()
1((7.36123e-10 -8.70845e-10 0))
1((0 0 0))
0()
1((0 0 0))
0()
1((-4.00806e-09 6.68759e-09 0))
0()
1((-2.9693e-09 -1.55292e-09 0))
1((0 0 0))
0()
1((0 0 0))
1((0 0 0))
1((0 0 0))
0()
0()
1((0 0 0))
0()
0()
0()
0()
1((-1.01866e-09 1.01195e-09 0))
0()
1((2.98506e-09 -1.94712e-10 0))
0()
1((1.93289e-09 -4.55774e-09 1.12735e-24))
0()
1((2.91744e-09 -2.28613e-09 0))
0()
1((-1.85965e-09 3.10733e-09 0))
0()
1((5.16513e-09 1.1286e-10 0))
1((0 0 0))
0()
0()
1((0 0 0))
0()
1((0 0 0))
1((0 0 0))
0()
1((0 0 0))
1((0 0 0))
1((0 0 0))
1((0 0 0))
0()
1((0 0 0))
1((0 0 0))
0()
1((0 0 0))
0()
1((0 0 0))
0()
0()
1((0 0 0))
1((1.07265e-08 -1.20285e-10 0))
1((0 0 0))
1((0 0 0))
0()
0()
0()
1((0 0 0))
0()
0()
0()
1((0 0 0))
0()
1((0 0 0))
1((4.8841e-09 -1.139e-09 0))
0()
1((0 0 0))
1((6.81527e-09 -1.52461e-09 0))
0()
0()
1((0 0 0))
1((0 0 0))
0()
1((7.71666e-09 4.31037e-09 0))
1((2.57218e-09 -1.13638e-09 0))
1((0 0 0))
1((2.84613e-10 4.99762e-09 0))
0()
1((0 0 0))
0()
1((0 0 0))
1((0 0 0))
1((0 0 0))
1((0 0 0))
1((0 0 0))
0()
0()
1((0 0 0))
1((-3.89468e-24 8.57028e-08 -1.40387e-09))
0()
0()
0()
0()
0()
1((-2.63924e-09 -3.75701e-09 0))
0()
0()
0()
0()
0()
0()
0()
1((2.85756e-09 8.67136e-09 0))
0()
1((0 0 0))
1((0 0 0))
0()
1((5.43816e-09 -5.74362e-09 0))
1((0 0 0))
1((-3.94026e-09 3.58032e-09 0))
0()
1((0 0 0))
1((-4.47925e-09 3.00312e-09 0))
0()
0()
0()
0()
0()
0()
0()
0()
1((0 0 0))
0()
0()
0()
1((0 0 0))
1((0 0 0))
0()
0()
1((0 0 0))
0()
1((0 0 0))
0()
0()
0()
0()
0()
1((0 0 0))
1((6.1303e-09 2.94556e-09 0))
1((0 0 0))
0()
0()
0()
0()
0()
0()
0()
0()
0()
0()
0()
1((2.77343e-09 -1.016e-09 0))
1((0 0 0))
1((0 0 0))
0()
0()
1((0 0 0))
0()
0()
1((0 0 0))
0()
1((4.25892e-09 1.23419e-09 0))
1((0 0 0))
1((0 0 0))
1((0 0 0))
1((0 0 0))
0()
0()
0()
2((-2.21962e-24 -2.27128e-08 4.42009e-09) (0 0 0))
1((0 0 0))
0()
0()
0()
1((0 0 0))
1((0 0 0))
1((2.06719e-09 6.08621e-09 0))
0()
1((0 0 0))
0()
1((8.29782e-09 1.36703e-09 0))
0()
0()
0()
0()
0()
0()
1((0 0 0))
0()
0()
1((0 0 0))
1((0 0 0))
0()
1((0 0 0))
0()
0()
1((0 0 0))
1((0 0 0))
1((2.62985e-09 -3.77677e-09 0))
1((0 0 0))
1((5.60165e-09 1.15535e-09 0))
1((-1.61664e-09 -3.55884e-09 0))
1((0 0 0))
1((0 0 0))
1((0 0 0))
1((0 0 0))
0()
0()
0()
1((0 0 0))
0()
1((0 0 0))
1((1.62578e-09 -4.27926e-09 0))
0()
0()
0()
1((0 0 0))
0()
0()
0()
0()
1((2.43065e-09 -6.38622e-09 0))
1((0 0 0))
1((0 0 0))
1((-1.71388e-09 9.76507e-09 6.66621e-24))
0()
1((0 0 0))
0()
0()
0()
0()
1((-1.9054e-09 -4.2353e-09 0))
0()
0()
1((-4.53061e-09 2.85999e-09 0))
1((0 0 0))
1((0 0 0))
0()
1((-4.31718e-09 -2.10115e-09 0))
0()
1((-4.15139e-09 3.33455e-09 0))
0()
1((-5.36884e-22 -2.90446e-08 2.45085e-09))
0()
1((-4.89532e-24 -9.93876e-08 8.51329e-09))
0()
1((0 0 0))
1((0 0 0))
0()
0()
0()
0()
1((0 0 0))
1((6.22125e-09 -8.61888e-10 0))
0()
0()
0()
0()
1((0 0 0))
0()
1((0 0 0))
0()
0()
0()
0()
1((0 0 0))
0()
1((0 0 0))
1((0 0 0))
0()
0()
0()
0()
0()
0()
0()
0()
0()
1((0 0 0))
0()
0()
1((0 0 0))
1((0 0 0))
0()
1((0 0 0))
0()
0()
0()
0()
0()
1((-5.40985e-09 -6.56859e-09 0))
1((0 0 0))
0()
1((0 0 0))
1((0 0 0))
0()
0()
1((0 0 0))
0()
0()
1((0 0 0))
1((0 0 0))
0()
1((0 0 0))
1((-1.30515e-09 -7.41481e-09 0))
1((1.03565e-09 -2.59367e-09 0))
0()
0()
0()
0()
0()
0()
1((0 0 0))
1((0 0 0))
0()
0()
1((0 0 0))
0()
1((0 0 0))
1((0 0 0))
0()
0()
1((-2.83045e-24 2.80755e-08 5.12395e-09))
0()
1((0 0 0))
0()
0()
0()
1((0 0 0))
0()
0()
0()
1((0 0 0))
0()
1((0 0 0))
0()
0()
0()
0()
1((0 0 0))
1((0 0 0))
0()
1((0 0 0))
0()
0()
0()
0()
0()
1((0 0 0))
0()
0()
0()
0()
0()
0()
0()
0()
1((0 0 0))
0()
0()
1((0 0 0))
0()
0()
1((0 0 0))
0()
0()
0()
1((0 0 0))
0()
0()
0()
0()
0()
0()
0()
0()
1((0 0 0))
0()
0()
0()
0()
0()
0()
0()
0()
0()
1((0 0 0))
0()
0()
0()
1((0 0 0))
0()
1((0 0 0))
1((1.10879e-09 -1.10239e-09 0))
0()
0()
1((-3.0594e-27 -5.71539e-08 1.32362e-09))
0()
0()
0()
0()
0()
0()
0()
0()
0()
0()
1((0 0 0))
0()
0()
0()
0()
0()
0()
0()
0()
1((0 0 0))
0()
0()
0()
0()
1((0 0 0))
0()
0()
0()
0()
0()
0()
0()
0()
0()
0()
0()
1((0 0 0))
0()
0()
0()
0()
0()
0()
0()
0()
0()
0()
0()
0()
0()
0()
0()
0()
0()
0()
0()
0()
0()
0()
0()
0()
0()
1((0 0 0))
1((0 0 0))
0()
0()
0()
0()
0()
0()
0()
0()
0()
1((1.11062e-24 3.30072e-08 -1.06369e-09))
0()
0()
0()
1((0 0 0))
0()
0()
0()
0()
0()
0()
0()
0()
0()
0()
0()
0()
0()
0()
0()
0()
0()
1((0 0 0))
0()
0()
0()
0()
0()
0()
0()
0()
0()
0()
0()
0()
0()
0()
1((0 0 0))
0()
0()
0()
0()
0()
0()
0()
0()
0()
0()
0()
0()
0()
0()
0()
0()
0()
0()
0()
0()
0()
0()
0()
0()
0()
0()
0()
0()
0()
0()
0()
0()
0()
0()
0()
0()
0()
1((-3.63517e-26 -9.75288e-09 2.57833e-10))
1((-6.9522e-11 -4.11038e-10 0))
0()
1((1.86604e-25 1.76411e-08 3.14522e-11))
0()
0()
0()
0()
0()
0()
0()
0()
0()
0()
0()
0()
0()
1((0 0 0))
0()
0()
0()
0()
0()
0()
0()
0()
0()
0()
0()
0()
0()
0()
0()
0()
0()
0()
0()
0()
0()
0()
0()
0()
0()
0()
0()
1((0 0 0))
0()
0()
0()
0()
0()
0()
0()
0()
0()
0()
0()
0()
0()
0()
0()
0()
0()
0()
1((0 0 0))
)


// ************************************************************************* //
