/*--------------------------------*- C++ -*----------------------------------*\
  =========                 |
  \\      /  F ield         | OpenFOAM: The Open Source CFD Toolbox
   \\    /   O peration     | Website:  https://openfoam.org
    \\  /    A nd           | Version:  8
     \\/     M anipulation  |
\*---------------------------------------------------------------------------*/
FoamFile
{
    version     2.0;
    format      ascii;
    class       labelFieldField;
    location    "0/lagrangian/kinematicCloud";
    object      collisionRecordsPairOrigIdOfOther;
}
// * * * * * * * * * * * * * * * * * * * * * * * * * * * * * * * * * * * * * //


1578
(
2(3 68)
4(2 70 69 4)
3(3 143 141)
3(142 68 69)
4(141 143 140 213)
4(214 69 142 144)
5(212 214 284 142 283)
2(282 213)
2(354 284)
3(353 426 355)
1(424)
3(427 354 497)
1(495)
2(426 568)
4(567 640 497 569)
4(640 638 711 567)
3(709 711 638)
2(749 712)
3(750 748 789)
3(828 826 787)
4(787 789 748 828)
4(790 827 829 788)
4(788 751 790 749)
3(133 829 135)
4(135 204 206 133)
2(277 204)
4(276 278 207 347)
4(348 277 275 346)
4(347 349 278 418)
5(349 489 418 420 490)
4(491 560 420 419)
4(492 563 490 561)
4(491 560 631 562)
2(561 632)
5(631 633 702 703 562)
4(705 632 634 704)
2(773 632)
2(775 633)
2(38 773)
4(38 40 775 110)
3(39 112 110)
5(180 39 111 109 40)
3(39 776 704)
4(112 181 110 182)
5(182 180 111 252 251)
5(253 251 323 181 322)
6(394 252 322 324 393 253)
5(393 395 323 465 464)
5(465 392 394 535 393)
4(464 466 394 536)
4(536 463 464 534)
4(535 537 465 606)
4(534 607 605 536)
2(606 608)
3(678 605 676)
2(677 37)
4(711 676 75 678)
4(744 36 711 37)
4(113 115 74 744)
4(114 73 184 112)
4(185 183 113 112)
4(184 115 256 186)
4(185 255 257 327)
5(256 183 326 254 327)
5(327 254 397 255 325)
5(326 257 398 255 256)
4(398 396 468 326)
3(538 536 396)
5(469 397 538 396 539)
4(538 607 609 536)
4(467 540 537 468)
3(608 610 537)
3(607 679 609)
3(679 681 752)
3(679 822 752)
3(751 754 680)
3(822 820 823)
3(751 821 753)
2(3 5)
2(71 3)
2(71 143)
3(285 143 213)
2(145 285)
4(213 356 285 355)
5(214 286 356 215 284)
4(427 285 286 284)
4(498 356 426 357)
3(427 569 428)
4(570 428 429 569)
4(498 640 499 568)
5(499 640 500 571 641)
5(570 639 641 569 568)
5(711 571 642 640 570)
4(641 710 712 639)
4(750 711 642 713)
3(789 713 752)
4(828 830 134 791)
4(752 828 789 791)
3(792 829 790)
4(205 830 134 136)
1(135)
2(205 207)
4(831 135 829 137)
4(277 208 279 206)
4(350 277 348 279)
4(207 351 280 278)
5(348 421 419 350 420)
4(278 422 349 351)
4(419 492 490 349)
3(493 349 422)
4(493 491 420 564)
3(491 635 634)
2(633 563)
2(563 636)
3(776 706 633)
4(705 41 775 777)
3(112 776 42)
5(183 113 41 111 40)
4(254 181 183 111)
4(112 184 254 182)
5(325 255 182 253 183)
4(324 252 254 323)
5(253 395 325 323 396)
4(254 324 326 396)
4(467 397 324 325)
4(466 324 467 394)
5(395 537 465 467 538)
5(538 396 395 466 468)
4(466 608 538 536)
4(679 537 609 607)
4(608 712 711 680)
5(37 712 679 744 75)
4(75 745 114 711)
4(679 745 713 711)
5(712 746 115 116 744)
3(185 745 114)
3(117 745 187)
2(187 185)
5(187 327 328 258 256)
4(398 258 257 329)
4(328 397 327 469)
3(329 469 470)
3(399 468 398)
4(539 400 399 471)
4(541 470 468 540)
4(538 612 610 539)
3(539 542 471)
4(611 540 609 681)
3(610 613 682)
3(680 610 682)
4(754 611 681 683)
4(682 753 825 752)
4(825 822 823 754)
3(824 821 753)
2(823 826)
2(4 71)
2(72 7)
5(72 70 145 144 5)
4(146 6 71 73)
3(71 215 217)
3(217 72 147)
4(146 216 218 145)
3(217 286 288)
4(357 216 285 356)
4(288 358 357 359)
4(428 286 427 287)
3(287 429 359)
3(357 499 498)
4(358 500 430 499)
4(501 570 429 572)
5(641 572 643 570 642)
5(714 712 641 643 571)
4(644 642 571 572)
4(714 751 753 712)
4(713 642 754 715)
4(752 754 713 793)
4(790 753 792 751)
3(752 832 791)
4(209 830 831 138)
3(209 207 280)
4(210 208 137 139)
4(832 830 137 138)
3(281 279 208)
3(279 352 350)
3(350 423 421)
3(422 424 494)
4(494 421 492 564)
4(493 495 565 423)
3(492 565 493)
4(636 494 564 566)
5(637 706 565 635 707)
2(705 636)
2(777 636)
2(776 707)
2(42 708)
2(41 778)
3(779 113 114)
2(43 112)
4(184 115 43 44)
2(183 114)
3(255 115 186)
3(185 254 256)
3(325 327 256)
3(396 327 398)
3(467 469 398)
5(467 609 537 539 466)
3(538 540 469)
3(610 608 538)
3(609 611 540)
2(714 712)
2(679 681)
2(680 715)
2(118 116)
5(258 116 257 188 186)
2(747 745)
2(189 187)
4(259 187 328 257)
3(260 258 329)
5(259 399 328 400 330)
2(329 400)
4(470 329 401 330)
3(470 541 401)
4(472 612 541 543)
3(613 540 542)
3(614 612 611)
2(684 682)
0()
4(825 756 826 758)
3(757 753 754)
3(757 824 827)
3(73 8 6)
4(7 147 74 72)
3(73 148 146)
3(217 219 288)
4(287 289 218 216)
4(288 219 360 290)
2(358 287)
2(429 431)
4(502 432 360 430)
4(431 501 573 503)
3(500 502 572)
5(571 573 501 643 500)
3(572 574 502)
3(643 645 715)
3(714 716 644)
3(755 714 753)
4(831 794 792 833)
2(794 753)
3(832 795 793)
4(139 831 137 833)
3(140 209 138)
3(834 832 138)
3(209 211 281)
3(282 280 210)
4(353 211 283 281)
2(353 351)
4(282 424 352 354)
4(425 423 495 353)
4(566 424 496 494)
4(637 495 567 565)
4(566 636 708 638)
3(637 710 639)
4(779 637 709 778)
2(779 114)
4(780 708 43 44)
3(45 114 185)
3(185 187 116)
3(257 255 326)
4(187 256 327 258)
4(397 257 328 326)
3(327 329 258)
3(397 399 468)
3(469 329 398)
4(539 399 470 468)
4(400 540 469 471)
4(541 539 470 610)
3(610 682 612)
3(611 715 683)
4(713 748 715 747)
5(749 714 119 715 747)
5(748 682 681 714 716)
4(117 190 189 119)
4(120 747 748 118)
4(118 120 261 191)
4(746 119 714 748)
4(188 261 118 260)
4(259 331 189 261)
2(400 471)
3(331 473 403)
2(542 473)
3(402 544 472)
1(542)
3(473 615 474)
3(613 684 615)
4(614 545 544 616)
3(756 614 683)
3(756 687 758)
0()
3(684 757 685)
4(759 757 685 827)
3(826 828 758)
2(827 829)
2(7 9)
2(73 75)
4(74 9 149 76)
4(147 219 220 149)
3(148 150 75)
3(221 148 219)
4(289 148 220 218)
2(289 291)
3(289 431 361)
2(360 362)
2(431 433)
2(504 502)
3(573 575 646)
3(644 646 717)
4(576 645 647 574)
1(715)
2(645 718)
2(756 754)
4(755 757 796 795)
4(794 796 756 835)
2(834 795)
4(139 141 211 834)
2(140 142)
3(833 835 140)
4(212 282 210 140)
2(213 211)
3(282 284 354)
2(353 283)
3(424 426 497)
3(425 355 427)
4(425 498 496 569)
3(495 568 497)
2(566 568)
4(496 640 569 567)
2(638 640)
3(708 781 710)
3(711 638 709)
3(115 46 117)
4(780 118 45 47)
3(46 779 781)
4(780 47 709 782)
3(186 117 188)
4(45 116 118 189)
4(259 186 257 188)
3(116 187 189)
3(330 257 328)
3(187 331 260)
4(399 330 401 328)
3(331 329 258)
3(470 401 472)
4(543 541 472 470)
3(540 542 471)
4(614 541 612 613)
3(611 613 542)
4(684 685 612 542)
3(715 717 749)
3(750 684 716)
4(613 717 718 683)
2(682 684)
3(119 121 190)
3(748 750 716)
2(190 261)
5(262 189 190 260 191)
4(263 261 331 192)
4(402 260 262 332)
3(333 331 403)
4(474 402 404 332)
3(403 544 475)
4(475 615 546 616)
3(615 617 545)
4(687 618 616 546)
4(685 617 760 688)
2(758 760)
4(687 759 761 830)
2(828 830)
3(10 8 75)
3(11 9 76)
3(77 75 10)
1(149)
2(221 77)
4(220 222 151 291)
2(290 221)
3(362 222 293)
3(292 433 361)
3(433 293 364)
4(432 363 504 362)
2(364 504)
4(503 505 433 434)
3(435 575 504)
3(574 505 576)
3(506 646 575)
3(646 648 577)
2(717 757)
4(756 719 758 718)
2(757 797)
3(756 797 795)
5(796 837 798 836 758)
2(142 797)
3(836 213 141)
4(212 214 142 284)
4(283 285 355 213)
4(214 356 286 284)
3(427 285 357)
2(426 284)
4(356 498 426 428)
3(497 427 499)
2(568 497)
3(571 641 499)
3(568 641 639)
5(712 570 640 642 711)
3(710 641 782)
3(783 641 713)
2(781 711)
4(46 783 781 48)
2(47 119)
3(119 46 117)
4(120 118 49 48)
3(712 784 47)
3(190 117 188)
3(259 261 190)
5(259 261 332 330 402)
3(401 331 332)
4(400 329 473 402)
4(471 473 400 544)
4(474 403 472 401)
2(472 543)
3(471 615 544)
3(542 686 615)
4(614 545 543 616)
3(614 687 719)
2(613 718)
2(750 718)
4(684 752 751 685)
3(193 120 750)
4(750 194 123 193)
5(121 265 194 192 122)
5(122 749 717 121 751)
3(262 193 263)
5(262 333 264 334 192)
4(265 263 335 334)
3(405 263 332)
2(403 475)
4(333 476 477 406)
5(476 545 547 474 404)
4(475 405 477 548)
2(545 617)
2(475 619)
4(549 618 547 620)
3(619 617 688)
3(689 687 618)
4(688 620 761 690)
4(830 689 762 760)
4(831 829 761 760)
3(830 832 762)
3(12 10 13)
2(11 78)
2(76 151)
4(153 12 152 79)
3(78 222 223)
4(292 221 152 223)
3(152 294 222)
4(294 363 292 365)
4(365 436 434 363)
3(436 505 507)
3(507 576 578)
3(506 508 435)
2(647 578)
4(579 506 650 577)
4(719 647 720 649)
2(648 650)
4(648 757 720 759)
4(719 721 760 648)
3(719 799 798)
4(797 799 838 759)
3(797 144 143)
2(837 214)
4(216 837 145 215)
4(215 213 285 143)
4(214 216 144 286)
3(285 287 215)
2(356 358)
3(427 429 499)
3(428 430 501)
4(498 500 570 428)
3(501 499 572)
3(570 572 643)
3(641 643 714)
2(712 714)
3(119 50 121)
3(783 785 50)
4(119 192 190 121)
3(120 189 260)
3(261 192 263)
3(331 191 260)
3(332 263 334)
4(262 333 331 402)
4(332 405 403 334)
3(473 333 404)
3(403 476 474)
3(473 475 404)
2(615 475)
4(615 617 687 546)
5(688 686 617 720 616)
3(719 123 718)
3(752 686 720)
3(753 687 719)
3(124 720 721)
4(122 752 194 124)
5(194 754 125 753 123)
5(193 124 122 195 123)
4(266 193 264 195)
3(406 263 264)
2(264 336)
2(406 335)
4(407 334 336 405)
4(406 337 477 408)
4(478 407 476 405)
2(479 477)
2(476 549)
3(619 479 548)
3(621 689 619)
1(689)
3(761 763 831)
4(691 832 762 764)
3(831 763 833)
2(11 14)
2(15 13)
3(15 78 154)
2(78 224)
3(295 153 225)
3(293 295 223)
4(366 224 296 294)
3(293 366 364)
4(295 437 367 365)
4(437 435 508 364)
3(436 438 366)
4(509 507 580 436)
3(578 580 650)
5(651 649 579 721 578)
3(720 722 650)
4(721 652 723 651)
4(720 799 761 800)
2(760 723)
5(798 800 760 759 839)
4(799 762 801 760)
2(145 798)
3(799 840 801)
4(144 146 838 840)
5(217 144 215 146 287)
3(216 218 147)
4(288 216 286 358)
3(287 359 218)
3(357 287 359)
4(288 430 358 289)
4(429 359 360 501)
4(500 431 429 430)
3(572 503 574)
4(571 502 500 573)
3(643 574 572)
4(573 644 642 571)
3(715 643 645)
2(713 642)
3(716 785 644)
3(784 715 786)
3(784 51 49)
4(50 52 121 786)
4(122 51 49 120)
3(787 51 785)
4(123 192 121 52)
5(120 122 191 193 263)
5(194 192 263 123 264)
4(262 193 192 191)
3(334 265 193)
4(262 335 264 333)
3(406 333 335)
5(545 474 547 476 546)
4(406 477 475 404)
4(477 618 475 548)
3(616 475 618)
4(687 618 689 616)
5(617 548 547 546 619)
5(688 619 617 690 722)
4(688 753 754 755)
5(690 688 755 723 689)
4(722 687 689 721)
4(124 196 126 197)
3(196 194 265)
5(268 195 125 197 267)
4(124 755 721 126)
2(265 267)
5(266 339 268 338 196)
2(337 267)
3(407 338 409)
2(407 480)
5(480 478 549 550 551)
4(552 481 479 408)
3(623 479 552)
3(621 479 622)
3(550 691 620)
2(550 692)
4(763 621 764 692)
4(691 765 833 763)
3(764 832 834)
4(14 80 79 16)
3(17 80 15)
5(155 15 154 16 81)
3(225 79 80)
4(80 226 81 156)
3(296 154 224)
5(295 226 297 225 367)
4(297 366 438 296)
4(509 368 437 367)
3(509 368 440)
4(438 508 439 510)
4(440 580 509 511)
5(510 508 581 651 579)
3(580 652 582)
4(580 650 652 722)
6(582 722 653 581 651 723)
5(653 762 761 652 722)
4(724 800 723 763)
4(801 764 803 762)
4(800 802 763 839)
3(801 842 840)
4(145 802 839 841)
4(841 145 147 216)
3(219 146 217)
4(146 148 842 840)
4(290 217 289 288)
3(218 359 360)
4(430 431 361 289)
3(290 432 360)
4(432 501 503 360)
5(431 361 504 433 503)
4(502 504 431 432)
4(502 575 573 645)
4(646 574 716 644)
4(717 715 787 645)
4(716 786 53 788)
4(124 51 53 122)
3(52 787 54)
4(125 123 52 196)
4(122 195 124 193)
3(266 193 195)
4(266 335 264 337)
4(405 265 334 336)
2(335 406)
4(405 476 407 336)
4(406 408 477 479)
3(407 547 476)
3(548 550 479)
5(618 478 549 547 619)
4(619 550 548 621)
6(689 549 620 548 690 618)
5(722 620 691 689 619)
6(754 756 722 723 721 126)
5(722 691 755 724 756)
5(755 757 127 126 723)
5(754 127 125 756 755)
5(197 757 198 756 126)
4(127 268 196 125)
5(268 128 199 127 269)
6(196 269 267 198 197 339)
5(267 340 410 269 268)
3(481 410 337)
2(339 409)
3(409 480 482)
5(480 623 482 551 553)
4(693 551 553 552)
2(622 691)
2(623 766)
3(765 694 693)
4(834 766 764 767)
3(765 835 833)
3(836 834 767)
3(18 16 82)
3(17 83 19)
2(17 81)
4(80 157 155 82)
2(155 226)
1(81)
4(155 296 227 156)
4(228 297 226 299)
5(368 227 296 298 367)
3(297 299 370)
4(297 438 369 439)
3(368 441 370)
4(512 510 441 439)
3(583 510 512)
5(652 583 653 581 654)
4(582 584 511 655)
5(723 725 652 654 582)
5(653 655 582 725 726)
3(762 725 764)
5(724 726 765 653 654)
4(763 765 724 804)
3(763 843 804)
4(802 149 843 841)
3(841 220 149)
3(150 842 148)
3(221 148 219)
3(147 291 220)
4(218 291 362 361)
3(290 292 219)
3(290 363 433)
3(362 504 432)
5(503 505 432 433 575)
4(504 434 506 576)
4(574 576 504 646)
4(647 577 505 575)
2(645 575)
4(648 717 576 718)
3(716 647 788)
2(789 647)
2(787 717)
2(718 54)
3(53 789 125)
3(55 124 54)
4(123 267 196 194)
4(195 126 124 197)
4(194 338 267 265)
4(195 268 266 197)
2(265 409)
3(339 266 268)
2(409 407)
3(339 408 337)
5(480 407 551 550 478)
6(549 551 478 622 479 621)
4(690 621 619 692)
6(622 620 692 693 549 550)
5(691 693 726 621 620)
5(691 726 759 758 724)
5(130 759 757 725 724)
5(692 725 723 690 724)
5(723 758 757 725 691)
5(198 200 757 129 199)
6(127 758 756 128 129 724)
5(269 200 198 128 271)
6(199 268 339 270 340 198)
4(342 269 340 271)
5(339 341 270 411 269)
3(340 414 342)
3(412 413 340)
2(411 482)
3(485 411 484)
2(483 413)
5(483 481 553 412 552)
4(555 482 554 484)
4(482 624 623 552)
3(624 483 626)
3(694 553 554)
3(626 694 696)
4(625 766 624 695)
2(694 768)
3(768 765 835)
3(767 769 695)
2(835 837)
2(84 18)
2(158 18)
4(229 84 83 159)
3(227 229 299)
3(228 158 230)
5(228 298 300 371 227)
2(231 299)
4(301 299 370 372)
4(442 298 369 371)
4(442 440 369 513)
3(443 370 441)
3(441 512 514)
4(584 440 511 513)
3(585 583 512)
3(656 654 583)
3(727 725 654)
3(766 725 764)
3(805 803 764)
3(804 806 766)
3(842 844 803)
3(149 151 221)
2(843 845)
4(220 222 292 150)
4(293 291 363 221)
3(292 294 364)
4(362 364 434 292)
5(293 363 436 435 365)
2(363 505)
3(364 506 507)
4(435 505 577 578)
4(506 649 576 648)
4(647 649 719 577)
3(790 648 720)
3(125 790 56)
3(57 55 126)
3(196 56 127)
3(55 791 719)
3(197 128 126)
4(267 127 196 198)
3(197 199 268)
4(269 267 338 198)
5(338 410 269 409 340)
5(481 339 480 340 411)
3(410 479 481)
6(410 552 551 411 482 480)
5(481 550 552 622 479)
5(623 622 481 482 551)
5(552 621 551 550 693)
5(552 553 693 694 624)
6(692 694 623 621 726 622)
5(727 726 693 623 624)
5(725 694 692 727 693)
5(727 758 725 130 760)
6(760 758 131 759 201 129)
5(201 199 128 272 129)
6(200 131 130 129 202 272)
5(200 273 202 201 271)
5(757 201 128 130 200)
3(270 272 199)
4(270 343 341 414)
3(273 342 344)
4(415 341 485 342)
3(556 413 414)
4(483 556 626 627)
4(555 485 486 557)
4(625 555 697 554)
3(625 770 697)
4(696 839 698 769)
3(770 837 768)
3(836 769 838)
2(839 837)
3(84 21 85)
4(20 158 19 85)
3(86 20 84)
2(158 86)
2(230 86)
3(229 160 231)
4(300 161 232 230)
3(371 232 302)
2(371 443)
5(442 444 373 514 372)
3(585 443 513)
4(585 444 516 587)
5(584 586 515 656 514)
2(658 585)
3(655 657 585)
4(727 729 656 658)
2(657 726)
2(729 766)
4(765 767 728 805)
3(766 807 768)
2(805 845)
3(846 767 808)
3(807 152 847)
5(150 223 845 152 222)
5(153 846 845 223 151)
4(844 152 151 806)
3(221 294 151)
4(224 294 151 152)
5(293 295 223 222 365)
3(364 366 294)
3(437 507 364)
4(578 436 435 508)
1(507)
4(507 649 506 579)
3(578 580 650)
5(648 720 578 577 650)
3(651 649 579)
4(791 649 721 719)
2(720 722)
4(57 790 720 792)
2(791 793)
4(791 58 128 56)
3(57 59 793)
4(57 127 129 199)
3(128 270 198)
3(269 200 199)
5(268 270 339 340 341)
6(411 341 269 410 339 412)
5(340 271 269 412 342)
6(411 342 483 413 341 340)
6(482 340 481 412 410 483)
6(553 411 483 552 481 554)
6(482 412 484 554 413 411)
5(482 624 623 625 554)
6(484 625 482 555 483 553)
6(625 553 695 623 696 694)
5(624 727 696 729 728)
6(694 695 759 728 726 760)
6(761 729 727 762 760 695)
6(130 131 728 759 761 727)
5(728 131 133 762 760)
4(204 131 133 202)
4(272 132 201 131)
6(201 761 130 132 760 202)
4(343 203 272 274)
4(275 344 273 346)
4(343 415 274 345)
4(418 344 416 346)
3(416 414 344)
5(417 415 486 487 345)
2(416 556)
3(557 416 488)
4(487 627 556 558)
2(557 628)
3(555 628 557)
4(629 627 697 558)
4(698 626 628 696)
4(697 699 770 771)
2(839 698)
4(838 770 840 771)
2(839 841)
2(20 22)
3(21 23 24)
4(160 85 87 159)
3(23 86 162)
3(231 162 233)
3(163 161 87)
4(301 233 303 231)
4(232 234 304 161)
2(373 301)
3(374 232 304)
4(443 374 445 302)
4(373 375 303 446)
4(443 516 515 445)
4(444 446 373 517)
4(444 588 515 517)
3(659 515 588)
4(586 730 659 657)
4(769 657 730 728)
3(658 731 729)
3(770 729 768)
3(767 769 808)
2(807 768)
5(152 154 225 847 224)
4(848 153 846 154)
5(223 225 295 296 153)
4(294 367 224 296)
4(224 368 295 225)
4(439 295 366 368)
3(367 365 438)
3(436 509 438)
4(437 439 366 510)
3(437 581 510)
3(579 581 652)
2(723 650)
3(721 794 723)
3(58 60 130)
2(128 200)
2(792 58)
4(200 131 59 201)
3(270 130 129)
4(271 202 130 272)
2(201 341)
3(342 273 201)
5(272 413 412 343 341)
6(484 342 414 412 483 343)
6(555 413 554 483 485 414)
6(625 484 556 554 626 485)
6(624 555 554 696 626 553)
6(556 625 696 627 555 697)
6(695 625 697 624 626 729)
5(729 627 696 698 626)
6(728 697 730 695 696 762)
4(698 729 762 763)
6(728 763 761 730 133 729)
2(204 273)
4(132 134 205 203)
4(204 206 275 135)
5(132 763 134 761 762)
3(276 205 274)
2(274 345)
4(489 416 418 488)
4(417 347 345 419)
3(487 559 417)
3(560 629 488)
4(628 630 559 699)
4(698 772 629 700)
3(701 699 774)
3(699 841 773)
2(840 772)
3(87 22 88)
2(22 25)
4(23 163 89 165)
5(162 88 234 164 165)
3(164 233 163)
4(303 235 233 375)
4(374 305 446 304)
2(446 377)
5(445 376 375 447 374)
4(448 517 446 519)
4(447 516 445 518)
4(588 517 590 519)
4(589 516 518 587)
4(588 661 660 590)
3(660 587 658)
5(659 661 731 732 589)
5(730 771 770 732 660)
4(809 731 769 810)
2(848 770)
3(810 155 156)
3(847 809 154)
6(153 155 226 847 225 848)
4(227 154 849 226)
6(297 153 224 296 154 226)
5(154 297 155 225 298)
3(225 369 226)
4(369 296 440 367)
4(367 511 438 440)
3(438 582 509)
2(439 512)
4(653 509 580 582)
3(510 581 583)
2(580 723)
3(581 724 654)
5(651 722 724 652 795)
4(725 723 654 653)
3(722 60 795)
2(723 794)
4(794 131 61 59)
3(132 796 60)
5(130 132 202 60 203)
5(62 61 131 133 203)
5(131 201 273 203 274)
5(202 133 274 131 132)
5(272 202 274 345 344)
5(342 415 344 413 414)
3(343 345 273)
5(487 343 414 416 486)
6(413 486 484 415 485 343)
6(486 484 557 556 555 414)
6(485 558 414 487 557 415)
6(485 629 556 558 628 486)
6(626 628 555 627 485 557)
5(628 697 699 556 626)
5(627 700 556 629 557)
4(730 699 697 732)
3(763 732 765)
5(731 133 762 764 730)
4(765 134 763 136)
4(204 764 133 135)
4(207 205 134 136)
4(205 278 277 276)
4(275 277 347 206)
5(349 276 347 206 348)
4(418 277 276 348)
4(419 347 421 277)
4(418 489 420 348)
3(490 421 419)
4(417 490 560 419)
5(489 491 560 420 561)
4(559 489 631 490)
3(630 560 632)
3(629 701 631)
3(702 700 630)
2(700 773)
4(842 772 843 774)
1(773)
4(775 844 773 776)
2(24 89)
2(89 27)
3(88 26 25)
1(165)
5(234 166 163 236 235)
4(163 88 90 166)
3(164 91 165)
4(236 304 305 164)
3(237 235 164)
3(375 306 235)
2(307 305)
2(376 378)
2(447 449)
4(520 518 447 591)
4(518 662 591 589)
4(660 733 589 662)
3(592 661 590)
4(731 733 660 772)
4(663 732 661 734)
3(731 811 810)
2(773 732)
4(770 850 849 771)
2(771 812)
2(851 810)
2(849 227)
3(155 228 156)
4(227 157 299 229)
1(226)
2(370 228)
3(370 297 368)
4(369 371 299 441)
3(441 368 439)
4(370 440 442 512)
4(511 513 583 441)
4(512 654 584 582)
4(583 724 655 653)
5(726 584 725 654 656)
3(796 655 724)
2(61 725)
2(726 62)
4(797 132 133 63)
5(203 204 62 134 132)
5(133 274 205 134 275)
5(273 203 275 202 204)
6(276 274 346 345 205 204)
5(273 346 344 275 416)
5(416 275 345 347 417)
3(346 415 345)
4(487 346 347 418)
5(417 415 486 488 558)
5(487 489 558 418 559)
6(486 559 557 488 487 629)
5(559 557 628 700 558)
3(698 627 733)
4(630 628 733 629)
5(734 732 700 701 699)
4(731 733 698 766)
4(764 766 731 137)
4(734 765 767 732)
4(135 279 278 208)
4(209 136 207 138)
4(764 135 208 137)
4(136 767 765 138)
3(206 350 207)
4(207 280 350 209)
3(277 421 350)
4(351 278 349 279)
5(492 349 422 420 348)
3(562 490 492)
4(423 491 421 493)
1(490)
3(491 633 563)
3(631 633 702)
4(562 703 632 634)
5(703 701 775 632 777)
3(702 704 633)
3(702 843 777)
3(702 778 775)
1(843)
2(843 845)
2(844 846)
1(26)
0()
2(166 92)
3(92 238 237)
3(167 236 307)
5(167 308 239 169 307)
4(306 238 237 378)
5(238 379 378 309 239)
4(377 308 449 307)
4(449 380 308 309)
4(448 379 378 450)
2(521 449)
1(519)
2(591 450)
3(590 521 519)
2(662 522)
3(733 593 664)
3(733 735 664)
3(772 774 812)
4(813 773 735 775)
4(813 811 851 773)
5(812 852 853 774 814)
4(850 852 157 812)
2(228 851)
3(852 229 230)
4(158 813 851 159)
3(158 300 228)
3(371 229 301)
5(300 442 370 443 372)
5(513 371 514 443 441)
5(514 371 444 442 372)
6(443 586 442 515 585 513)
5(442 584 512 585 514)
5(655 513 585 583 656)
5(584 657 513 586 514)
3(584 727 655)
4(655 797 798 727)
2(726 656)
3(726 799 64)
2(62 134)
3(798 135 65)
4(135 133 204 63)
4(206 64 134 136)
3(204 206 275)
5(277 135 205 136 207)
3(275 277 347)
5(206 348 276 207 278)
5(348 346 417 418 276)
4(419 488 347 417)
3(488 490 560)
4(629 560 558 488)
5(561 559 489 630 631)
2(700 560)
3(632 701 560)
2(733 631)
2(703 734)
4(766 702 733 735)
2(734 769)
3(766 768 137)
1(767)
3(139 137 208)
3(210 208 279)
3(279 351 281)
4(352 350 422 280)
3(421 351 423)
3(492 424 422)
2(492 563)
5(562 494 634 564 493)
3(563 704 633)
5(703 705 634 778 635)
3(847 704 777)
3(847 845 848)
3(778 846 779)
2(93 30)
3(29 31 94)
3(29 92 94)
4(95 93 171 30)
4(93 167 91 168)
2(92 169)
4(238 168 240 170)
4(308 240 238 310)
4(379 310 308 381)
4(452 379 451 381)
2(522 380)
4(380 524 453 523)
4(451 593 592 523)
3(522 452 594)
4(663 594 522 665)
4(593 595 666 523)
4(736 663 734 665)
3(593 737 664)
3(734 774 736)
3(664 776 735)
2(774 776)
3(813 815 854)
3(813 160 854)
3(852 231 230)
4(301 159 158 302)
4(232 160 159 302)
3(230 372 300)
3(373 231 230)
4(371 373 443 301)
3(372 302 444)
3(443 374 373)
2(514 445)
4(514 587 585 516)
3(586 588 516)
2(658 585)
3(657 728 659)
3(799 658 729)
3(800 798 728)
4(136 800 64 66)
5(65 207 206 135 137)
4(801 799 65 729)
5(278 136 277 208 206)
4(207 348 208 277)
5(277 419 278 347 349)
4(420 279 348 350)
3(490 418 348)
4(490 349 491 350)
4(419 561 420 489)
4(562 420 421 561)
4(632 560 490 491)
5(703 561 562 631 633)
5(702 632 704 736 633)
3(703 769 737)
5(140 735 770 736 737)
3(769 211 141)
1(138)
3(209 211 281)
3(140 282 210)
3(353 211 212)
3(352 210 280)
5(353 424 351 281 425)
4(352 283 282 354)
4(352 426 354 496)
4(352 423 496 495)
2(494 424)
4(424 566 425 497)
3(496 494 567)
4(563 495 565 566)
4(563 565 635 636)
4(494 637 567 564)
4(706 635 564 637)
4(564 704 706 636)
3(781 704 779)
3(635 781 636)
5(705 782 780 707 706)
3(705 847 780)
4(849 781 782 779)
2(846 849)
3(780 848 850)
2(30 32)
3(94 96 173)
2(169 171)
2(170 94)
2(172 240)
4(239 311 241 169)
4(309 311 239 382)
3(242 240 310)
4(383 381 310 312)
3(309 380 382)
3(452 383 454)
4(525 595 452 454)
3(594 524 596)
3(594 667 596)
4(666 739 738 596)
2(665 738)
5(776 737 778 739 667)
4(777 738 736 775)
4(776 817 778 815)
2(814 777)
3(854 817 856)
4(816 853 814 855)
3(160 854 856)
4(853 161 231 855)
3(160 162 232)
4(303 231 233 161)
3(232 374 304)
4(375 303 444 445)
4(374 376 446 304)
4(515 374 446 516)
4(517 447 375 445)
4(586 517 445 587)
4(446 588 518 516)
5(659 517 587 589 660)
4(588 730 658 660)
2(728 800)
4(801 659 731 802)
4(800 730 67 802)
1(65)
1(136)
3(67 209 139)
5(207 209 278 279 280)
4(280 138 208 210)
4(209 351 281 208)
3(350 208 349)
5(279 421 351 420 349)
5(280 350 352 422 281)
4(350 492 491 422)
4(562 421 493 564)
4(632 492 491 563)
4(562 564 633 635)
4(703 563 634 632)
4(633 706 704 635)
4(703 705 737 634)
3(704 739 706)
5(704 738 769 736 770)
3(737 771 772)
4(769 771 141 737)
5(770 142 772 738 143)
3(140 770 212)
2(213 771)
2(282 141)
3(353 213 284)
4(355 425 284 353)
4(425 427 355 497)
4(496 426 567 498)
5(565 498 566 637 497)
4(565 638 636 567)
3(637 569 639)
2(639 781)
4(781 783 780 708)
1(849)
3(31 33 96)
2(98 32)
3(95 32 97)
3(241 173 244)
2(95 172)
1(244)
4(175 172 174 243)
3(311 243 313)
2(382 313)
4(242 314 312 385)
4(384 382 455 453)
3(383 385 456)
4(455 524 526 453)
4(454 383 456 527)
3(524 597 526)
3(454 527 525)
4(667 595 668 666)
4(525 669 668 598)
4(739 597 740 596)
6(778 668 779 667 740 738)
5(777 779 739 738 818)
3(777 857 816)
3(855 163 816)
2(858 817)
3(161 163 234)
2(162 856)
3(233 235 162)
3(232 234 305)
2(303 375)
3(233 376 306)
4(375 377 447 305)
3(446 448 376)
2(517 519)
2(588 590)
3(661 659 588)
2(660 662)
2(730 732)
3(801 803 730)
3(138 801 68)
3(67 140 69)
2(138 211)
2(209 282)
4(282 351 280 352)
5(351 353 422 281 423)
5(351 493 421 352 423)
5(493 424 352 495 422)
4(492 423 422 494)
3(564 493 495)
4(492 563 565 494)
3(566 564 636)
3(636 634 563)
5(635 707 565 708 637)
3(707 634 705)
3(705 740 772)
5(143 739 771 773 738)
4(283 142 214 285)
3(215 143 213)
4(214 772 144 771)
4(283 285 354 356)
3(284 286 213)
4(354 356 426 428)
3(355 357 284)
3(426 498 428)
3(427 429 355)
5(499 567 427 497 568)
3(498 570 500)
2(499 429)
1(498)
3(570 638 640)
4(640 707 708 638)
5(639 641 709 710 569)
4(782 639 709 783)
4(708 640 785 784)
4(851 782 708 784)
3(783 853 709)
2(783 852)
1(96)
3(33 99 100)
2(175 98)
3(244 99 245)
3(243 316 175)
3(242 245 244)
3(313 315 316)
2(384 313)
4(455 386 384 457)
3(455 457 526)
1(598)
2(597 528)
2(600 669)
4(597 740 670 599)
3(669 741 671)
4(739 669 779 668)
4(779 742 670 780)
5(780 778 741 739 740)
4(779 819 781 741)
2(819 778)
4(858 780 820 818)
4(164 857 819 859)
3(235 858 165)
4(164 306 234 236)
4(377 235 307 305)
4(306 376 448 378)
4(449 377 519 447)
4(448 520 450 378)
4(448 520 518 590)
4(591 449 521 519)
3(589 591 519)
4(520 662 590 592)
5(591 733 661 732 663)
3(731 662 733)
4(662 804 734 732)
1(802)
2(69 733)
3(68 804 70)
3(141 805 69)
2(68 141)
3(140 212 70)
2(139 282)
2(283 141)
3(281 211 210)
2(212 353)
3(352 283 424)
1(424)
4(423 425 354 353)
1(424)
2(423 494)
2(565 496)
1(636)
5(706 740 636 741 708)
2(636 707)
5(739 774 707 773 741)
3(707 740 709)
3(772 740 144)
4(740 145 742 775)
2(216 774)
3(215 773 143)
4(214 216 286 144)
4(215 145 217 146)
1(358)
3(357 215 285)
4(429 286 358 356)
4(357 359 288 287)
4(357 500 428 501)
2(571 429)
2(570 501)
4(499 571 569 641)
3(640 570 711)
1(643)
2(640 712)
1(709)
3(853 851 854)
3(852 784 856)
1(852)
3(98 102 101)
1(100)
1(100)
0()
0()
0()
1(314)
2(245 314)
2(386 459)
0()
3(456 387 458)
3(529 527 456)
2(530 386)
2(457 601)
3(599 672 601)
2(670 672)
2(741 743)
2(780 782)
2(819 860)
0()
1(820)
1(858)
1(164)
0()
3(235 308 307)
0()
3(306 379 236)
1(236)
2(377 449)
1(307)
1(449)
1(520)
1(591)
1(662)
2(805 733)
2(70 734)
1(566)
0()
0()
1(741)
1(774)
2(774 146)
2(216 775)
1(216)
1(358)
2(358 430)
2(572 359)
1(430)
1(642)
1(641)
0()
1(710)
0()
1(856)
2(855 853)
0()
1(387)
1(458)
2(529 600)
2(671 600)
1(742)
1(781)
)


// ************************************************************************* //
