/*--------------------------------*- C++ -*----------------------------------*\
  =========                 |
  \\      /  F ield         | OpenFOAM: The Open Source CFD Toolbox
   \\    /   O peration     | Website:  https://openfoam.org
    \\  /    A nd           | Version:  8
     \\/     M anipulation  |
\*---------------------------------------------------------------------------*/
FoamFile
{
    version     2.0;
    format      ascii;
    class       vectorFieldField;
    location    "0/lagrangian/kinematicCloud";
    object      collisionRecordsWallPRel;
}
// * * * * * * * * * * * * * * * * * * * * * * * * * * * * * * * * * * * * * //


1578
(
2((-0.00299921 0 0) (0 0 0.00299987))
1((0 0 -0.00299995))
1((0 0 -0.00299984))
1((0 0 0.00299984))
0()
1((0 0 0.00299995))
1((3.46945e-18 0 0.00299987))
0()
0()
1((0 0 -0.00299996))
0()
0()
0()
0()
1((6.93889e-18 0 0.00299985))
1((0 0 0.00299975))
1((0 0 0.00299988))
1((0 0 -0.00299978))
1((0 0 0.00299976))
1((0 0 0.0029999))
1((0 0 0.0029998))
1((0 0 -0.00299991))
1((0 0 -0.00299977))
1((0 0 -0.00299993))
1((0 0 -0.00299981))
1((0 0 0.00299981))
1((0 0 -0.00299981))
1((0 0 -0.0029999))
0()
1((0 0 -0.00299991))
0()
1((0 0 0.00299992))
0()
0()
1((0 0 0.00299988))
1((0 0 -0.0029999))
0()
0()
0()
1((0 0 0.00299993))
0()
1((0 0 0.00299988))
0()
0()
1((0 0 -0.00299971))
0()
1((0 0 0.00299979))
1((0 0 -0.00299988))
1((0 0 -0.00299977))
1((0 0 0.00299983))
1((0 0 -0.00299981))
1((0 0 0.00299981))
1((0 0 -0.00299989))
0()
1((0 0 0.00299999))
0()
1((0 0 0.0029999))
1((0 0 -0.00299986))
1((0 0 -0.00299991))
1((0 0 -0.00299984))
1((0 0 -0.00299993))
1((0 0 0.00299976))
1((0 0 -0.00299997))
1((0 0 0.00299989))
1((0 0 -0.00299985))
1((0 0 0.00299988))
0()
0()
0()
1((0 0 -0.00299991))
0()
1((0 0 0.00299988))
1((0 0 -0.00299994))
1((0 0 -0.00299995))
1((0 0 -0.00299999))
1((0 0 0.00299982))
2((0.00299938 0 0) (0 0 -0.00299985))
0()
1((-0.00299993 0 4.33681e-19))
0()
0()
1((0 0 -0.00299993))
0()
1((0 0 -0.0029999))
1((0 0 -0.00299993))
1((0 0 0.0029999))
1((0 0 -0.0029999))
1((0 0 -0.00299995))
1((-6.93889e-18 0 0.00299983))
1((0 0 0.00299998))
1((0 0 0.00299977))
1((0 0 -0.00299971))
1((0 0 0.00299971))
1((0 0 -0.0029997))
1((0 0 0.00299978))
1((0 0 0.00299978))
0()
1((0 0 -0.00299988))
0()
1((0 0 -0.00299991))
0()
1((0 0 -0.00299993))
1((0 0 0.00299976))
1((0 0 0.00299993))
1((0 0 0.00299982))
0()
1((0 0 0.00299996))
0()
1((0 0 0.00299991))
1((0 0 0.00299994))
1((0 0 -0.00299994))
0()
0()
1((0 0 -0.00299995))
1((0 0 0.00299994))
1((0 0 0.00299992))
1((0 0 -0.00299993))
1((0 0 -0.00299984))
1((0 0 0.00299975))
1((0 0 0.00299989))
1((0 0 -0.00299978))
0()
1((0 0 0.00299992))
1((0 0 -0.00299986))
1((0 0 0.00299992))
0()
1((0 0 -0.00299968))
0()
1((0 0 0.00299966))
1((0 0 -0.00299957))
1((0 0 0.00299963))
1((0 0 0.00299983))
0()
1((0 0 -0.00299973))
1((0 0 -0.00299994))
1((0 0 -0.00299987))
1((0 0 0.00299985))
1((0 0 -0.00299993))
0()
1((0 0 0.00299985))
1((0 0 0.00299994))
0()
0()
0()
0()
1((0 0 -0.00299991))
0()
1((0 0 -0.0029999))
0()
0()
1((0 0 0.00299978))
0()
1((0 0 0.00299996))
2((0 0 0.00299991) (0.00299973 0 -4.33681e-19))
2((0 0 -0.00299983) (0.00299987 0 4.33681e-19))
0()
2((-0.00299875 0 -4.33681e-19) (0 0 0.00299989))
1((0 0 0.00299989))
1((0 0 -0.00299983))
1((0 0 -0.00299992))
1((0 0 -0.00299991))
1((0 0 0.00299985))
1((0 0 -0.00299993))
0()
1((0 0 -0.00299991))
1((0 0 0.00299981))
1((0 0 0.00299993))
1((0 0 -0.00299983))
1((0 0 -0.00299979))
1((0 0 -0.0029999))
1((0 0 -0.00299976))
1((0 0 0.0029998))
1((0 0 -0.00299977))
1((0 0 -0.00299975))
1((0 0 -0.00299988))
1((0 0 -0.00299986))
1((0 0 0.00299983))
0()
0()
1((0 0 -0.00299983))
0()
1((0 0 -0.00299975))
1((0 0 -0.0029999))
0()
1((0 2.77556e-17 -0.00299995))
1((0 0 0.00299991))
1((0 0 -0.00299988))
1((0 0 0.00299987))
1((0 0 -0.00299996))
1((0 0 -0.00299992))
1((0 0 0.00299992))
1((0 0 -0.00299992))
0()
1((0 0 -0.00299998))
1((0 0 -0.00299996))
1((0 0 0.00299996))
1((0 0 0.00299983))
1((0 0 -0.00299997))
1((0 0 -0.00299997))
0()
1((0 0 0.00299984))
1((0 0 -0.00299989))
1((0 0 0.00299996))
0()
0()
1((0 0 0.00299977))
1((0 0 -0.00299983))
1((0 0 0.00299981))
1((0 0 -0.00299989))
0()
1((0 0 -0.00299991))
1((0 0 0.00299994))
1((0 0 0.00299993))
1((0 0 -0.00299989))
0()
1((0 0 0.00299987))
1((0 0 -0.00299978))
1((0 0 0.0029998))
1((2.77556e-17 0 0.00299993))
0()
0()
0()
0()
1((0 0 0.00299989))
1((0 0 0.00299999))
0()
0()
0()
1((0 0 -0.00299989))
2((0.00299924 5.55112e-17 0) (0 0 0.00299978))
2((-0.00299941 0 0) (8.67362e-19 0 0.00299995))
1((-1.73472e-18 0 -0.00299995))
1((0 0 0.00299991))
0()
0()
1((0 0 0.00299984))
0()
1((0 0 0.00299983))
0()
1((0 0 0.00299999))
1((0 0 0.00299991))
1((0 0 -0.00299984))
1((0 0 0.00299981))
1((0 0 0.00299981))
1((0 0 0.00299997))
1((0 0 0.00299977))
1((0 0 0.00299973))
1((-1.38778e-17 0 0.00299991))
1((0 0 -0.00299968))
0()
0()
1((0 0 -0.00299992))
1((0 0 0.00299998))
0()
1((0 0 0.0029999))
1((0 0 0.003))
1((0 0 -0.00299992))
1((0 0 -0.00299984))
1((0 0 0.00299976))
1((0 0 -0.00299978))
1((0 0 0.00299982))
0()
1((0 0 0.00299988))
0()
1((0 0 -0.00299985))
1((0 0 -0.00299986))
1((0 0 0.00299986))
1((0 0 0.00299991))
1((0 0 -0.00299986))
1((0 0 0.00299986))
1((0 0 -0.00299984))
1((0 0 -0.00299995))
1((0 0 0.00299987))
1((0 0 -0.00299986))
1((0 0 0.00299992))
1((0 0 -0.00299975))
0()
1((0 0 -0.00299992))
1((0 0 0.00299991))
1((0 0 -0.00299987))
1((0 0 0.00299989))
1((0 0 -0.00299992))
1((0 0 0.00299975))
0()
1((0 0 -0.00299988))
1((0 5.55112e-17 -0.00299996))
1((0 0 -0.00299984))
0()
1((0 0 0.00299997))
1((0 0 -0.00299993))
1((0 0 0.00299991))
0()
1((0 0 -0.00299995))
1((0 0 -0.00299992))
1((0 0 0.00299991))
1((0 0 0.00299993))
1((0 0 0.00299998))
0()
1((0 0 -0.00299995))
0()
1((0.0029998 -5.55112e-17 0))
2((0 0 -0.00299998) (0.00299997 5.55112e-17 -4.33681e-19))
0()
0()
0()
1((0 0 -0.00299997))
0()
1((0 0 0.00299992))
1((0 0 -0.00299987))
0()
1((0 0 -0.00299986))
1((0 0 0.00299995))
0()
0()
1((6.93889e-18 0 0.00299988))
0()
1((0 0 -0.00299983))
0()
1((0 0 -0.00299997))
0()
1((0 0 -0.0029997))
1((0 0 0.00299975))
0()
1((0 0 -0.00299993))
1((0 0 0.00299996))
0()
0()
0()
1((0 0 0.00299997))
0()
0()
1((0 0 0.00299994))
0()
1((0 0 -0.00299986))
0()
1((0 0 0.00299992))
0()
1((0 0 -0.00299994))
1((0 0 0.00299996))
1((0 0 -0.00299989))
1((0 0 0.00299972))
1((0 0 -0.00299983))
1((0 0 0.00299993))
1((0 0 -0.00299994))
1((0 0 -0.00299996))
1((0 0 -0.00299991))
0()
1((0 0 0.00299991))
1((0 0 0.00299988))
1((0 0 0.00299984))
1((0 0 -0.00299984))
0()
1((0 0 0.00299986))
1((0 0 0.00299975))
0()
1((0 0 0.00299998))
1((0 0 0.00299995))
0()
1((0 0 0.00299991))
1((0 0 -0.00299996))
0()
1((0 0 -0.00299977))
1((0 0 -0.00299989))
0()
0()
1((0 0 -0.00299988))
1((0 0 -0.00299997))
1((0 0 0.00299993))
1((0 0 0.00299995))
0()
0()
1((0 0 -0.00299994))
0()
1((0 0 -0.00299992))
0()
0()
2((0.00299962 0 0) (0 0 0.00299995))
0()
2((-0.00299983 0 4.33681e-19) (0 0 -0.00299993))
0()
0()
0()
0()
0()
1((0 0 -0.00299993))
1((0 0 -0.00299994))
1((0 0 -0.00299993))
1((0 0 0.0029999))
1((0 0 0.00299996))
1((0 0 -0.00299989))
1((0 0 -0.00299992))
1((0 0 -0.00299986))
1((0 0 0.00299982))
1((0 0 0.0029999))
0()
1((0 0 0.00299977))
0()
1((0 0 0.00299971))
1((0 0 -0.00299973))
1((0 0 0.00299992))
1((0 0 -0.00299992))
0()
1((0 0 -0.00299993))
1((0 0 -0.00299985))
1((0 0 0.00299986))
1((0 0 0.00299996))
1((0 0 -0.00299987))
1((0 0 0.00299988))
0()
1((0 0 -0.0029999))
1((0 0 -0.00299993))
1((0 0 0.00299986))
0()
1((2.77556e-17 0 0.003))
1((0 0 -0.00299996))
1((0 0 -0.00299982))
0()
1((0 0 0.00299995))
1((0 0 0.00299987))
1((0 0 -0.00299992))
1((0 0 0.00299999))
0()
1((0 0 -0.00299986))
1((0 0 -0.00299995))
1((0 0 0.00299993))
1((0 0 -0.00299991))
1((0 0 -0.00299994))
0()
1((0 0 -0.00299986))
1((0 0 -0.0029998))
1((0 0 0.00299984))
1((0 0 0.0029998))
0()
0()
1((0 0 0.00299989))
1((0 0 0.00299975))
0()
1((0 0 -0.0029998))
1((0 0 0.00299994))
1((0 0 0.00299996))
1((0 0 0.0029998))
1((0 0 -0.003))
1((0 0 -0.00299985))
0()
1((0 0 0.00299987))
1((0 0 -0.00299988))
1((0 0 0.00299988))
0()
0()
0()
0()
0()
1((0 0 0.00299985))
1((0 0 -0.00299999))
1((0 0 -0.00299988))
2((0.00299951 5.55112e-17 -4.33681e-19) (0 0 0.003))
2((-0.00299889 0 0) (0 0 0.00299988))
1((-1.73472e-18 0 -0.00299985))
0()
1((0 0 0.00299985))
1((0 0 0.00299987))
1((0 0 -0.00299987))
1((0 0 0.00299993))
1((0 0 0.00299992))
1((0 0 -0.00299994))
1((0 0 0.00299982))
1((0 0 -0.0029998))
1((0 0 0.00299985))
0()
0()
1((0 0 -0.00299991))
1((0 0 0.00299993))
1((0 0 -0.00299976))
1((0 0 0.00299986))
1((0 0 0.00299992))
1((0 0 -0.00299984))
1((0 0 -0.00299992))
1((0 0 -0.00299989))
1((0 0 0.0029998))
1((0 0 0.00299984))
0()
1((0 0 0.00299997))
1((0 0 -0.00299997))
1((0 0 0.00299996))
0()
1((0 0 -0.00299989))
1((0 0 0.00299989))
1((0 0 0.00299994))
1((0 0 -0.00299993))
0()
1((0 0 -0.00299993))
1((0 0 0.00299992))
1((0 0 -0.00299982))
0()
1((0 0 -0.00299989))
1((0 0 0.00299988))
1((0 0 -0.00299991))
1((0 0 0.00299982))
1((0 0 -0.0029999))
1((0 0 -0.00299991))
1((0 0 -0.00299995))
1((0 0 0.00299996))
1((0 0 -0.00299997))
1((0 0 -0.00299989))
1((0 0 -0.00299986))
1((0 0 -0.00299994))
1((0 0 0.00299994))
0()
1((0 0 0.00299995))
0()
1((0 0 0.00299992))
1((0 0 -0.00299993))
1((0 0 -0.00299981))
1((0 0 -0.0029999))
0()
0()
1((0 0 -0.00299994))
1((0 0 0.00299991))
1((0 0 -0.00299983))
0()
0()
0()
1((0 0 -0.00299982))
0()
0()
1((0 0 0.00299989))
1((0.00299926 -5.55112e-17 0))
1((2.60209e-18 0 -0.00299995))
1((-0.00299908 0 0))
1((0 0 0.00299989))
1((0 0 -0.00299993))
0()
1((0 0 -0.00299988))
1((0 0 -0.00299989))
0()
1((0 0 0.00299988))
1((0 0 -0.00299985))
1((0 0 -0.00299995))
1((0 0 0.00299987))
0()
1((0 0 0.00299994))
0()
1((0 0 0.00299988))
1((0 0 0.0029999))
0()
1((0 0 0.00299976))
1((0 0 -0.00299978))
1((0 0 0.00299991))
1((0 0 -0.00299994))
1((0 0 -0.00299991))
1((0 0 -0.00299983))
1((0 0 -0.00299991))
0()
0()
0()
1((0 0 0.00299999))
0()
1((0 0 -0.0029999))
1((0 0 -0.00299995))
1((0 0 -0.00299996))
1((0 0 -0.00299993))
1((0 0 0.00299991))
0()
0()
1((0 0 -0.00299982))
1((0 0 0.00299987))
0()
1((0 0 0.00299998))
1((0 0 0.00299996))
0()
1((0 0 -0.00299992))
1((0 0 0.00299981))
1((0 0 0.00299987))
1((0 0 0.00299996))
0()
0()
1((0 0 0.00299991))
1((0 0 0.00299991))
1((0 0 0.00299993))
0()
0()
1((0 0 -0.00299993))
1((0 0 0.0029999))
1((0 0 0.00299986))
0()
1((0 0 0.00299982))
1((0 0 -0.00299983))
0()
1((0 0 0.0029999))
1((0 0 -0.00299994))
0()
1((0 0 0.00299974))
1((0 0 -0.00299971))
1((0 0 0.00299994))
0()
0()
1((0 0 0.00299973))
1((0 -5.55112e-17 -0.00299989))
1((0 0 -0.0029999))
1((0 0 -0.00299977))
1((0 0 0.00299973))
0()
1((0 0 -0.00299981))
0()
1((0.00299966 0 -4.33681e-19))
1((0 0 0.00299992))
1((8.67362e-19 0 0.00299992))
1((0 0 -0.00299983))
1((0 0 -0.0029999))
1((0 0 0.00299983))
1((0 0 0.0029999))
1((0 0 -0.0029999))
1((0 0 0.00299988))
1((0 0 -0.00299986))
1((0 0 -0.00299988))
1((0 0 -0.0029999))
1((0 0 0.00299981))
1((0 0 -0.00299982))
0()
0()
1((0 0 -0.00299984))
1((0 0 -0.0029999))
0()
1((0 0 0.00299988))
0()
1((0 0 0.00299997))
1((0 0 0.00299998))
1((0 0 0.00299992))
1((0 0 0.00299994))
1((0 0 0.00299994))
1((0 0 0.00299984))
0()
0()
1((0 0 0.00299997))
1((0 0 0.00299986))
1((0 0 -0.00299989))
1((0 0 0.00299999))
1((0 0 0.0029999))
0()
1((0 0 0.00299981))
1((0 0 -0.00299996))
1((0 0 -0.00299999))
1((0 0 0.00299996))
1((0 0 0.00299987))
1((0 0 -0.00299985))
1((0 0 -0.00299981))
1((0 0 -0.00299992))
0()
0()
0()
0()
1((0 0 -0.00299994))
0()
0()
0()
1((0 0 -0.00299985))
1((0 0 -0.00299992))
0()
1((0 0 -0.00299989))
1((0 0 0.00299994))
0()
0()
1((0 0 -0.00299993))
1((0 0 0.00299988))
0()
1((0 0 0.00299982))
0()
1((0 0 0.00299997))
1((0 0 -0.00299984))
1((0 0 0.00299991))
0()
0()
1((0 0 0.00299988))
1((0 0 -0.00299976))
1((0 0 0.00299984))
1((0.00299868 0 0))
0()
2((-0.00299938 0 0) (-4.33681e-19 0 -0.00299995))
2((-0.00299972 0 0) (0 0 0.00299994))
0()
0()
0()
0()
1((0 0 -0.0029999))
1((0 0 -0.00299988))
1((0 0 0.00299992))
0()
1((0 0 0.00299982))
1((0 0 -0.00299989))
1((0 0 0.00299985))
1((0 0 -0.00299989))
1((0 0 0.00299977))
1((0 0 -0.00299979))
1((0 0 -0.00299998))
1((0 0 -0.0029999))
1((0 0 0.00299995))
1((0 0 -0.00299997))
0()
1((0 0 -0.00299991))
1((0 0 -0.00299994))
0()
1((0 0 -0.0029999))
1((0 0 -0.00299996))
1((0 0 -0.00299993))
1((0 0 -0.00299985))
0()
0()
1((0 0 -0.00299988))
1((-1.38778e-17 0 0.00299987))
1((0 0 -0.00299989))
1((0 0 -0.00299987))
1((0 0 0.00299988))
0()
0()
1((0 0 -0.00299987))
0()
0()
0()
0()
1((0 0 -0.00299988))
1((0 0 0.00299987))
1((0 0 -0.00299995))
1((0 0 0.00299977))
1((0 0 -0.00299986))
0()
1((0 0 -0.0029998))
0()
0()
1((0 0 0.00299989))
1((0 0 0.00299992))
0()
1((0 0 0.00299991))
0()
0()
1((0 0 0.00299992))
0()
1((0 0 -0.00299994))
1((0 0 -0.0029999))
0()
1((0 0 -0.00299989))
0()
1((0 0 -0.00299992))
1((-2.77556e-17 0 0.00299984))
1((-2.77556e-17 0 -0.00299982))
1((0 0 -0.00299991))
0()
1((0 0 -0.00299994))
0()
1((0 0 0.00299979))
1((0 0 -0.00299987))
1((0 0 -0.00299986))
1((0 0 -0.00299996))
1((0 0 0.00299988))
1((0 0 -0.00299986))
1((0 0 0.00299982))
0()
0()
0()
1((0.00299989 -5.55112e-17 0))
1((-0.00299985 0 -4.33681e-19))
0()
0()
1((0 0 0.00299984))
1((0 0 -0.00299988))
1((0 0 -0.00299992))
1((0 0 0.00299998))
1((0 0 0.00299991))
1((0 0 -0.00299993))
1((0 0 -0.00299989))
1((0 0 0.00299987))
0()
1((0 0 -0.00299985))
1((0 0 0.00299978))
1((0 0 0.00299991))
1((0 0 0.00299992))
1((0 0 -0.00299991))
0()
0()
1((0 0 0.00299992))
1((0 0 0.0029999))
0()
0()
1((0 0 0.00299992))
0()
1((0 0 0.00299989))
1((0 0 0.00299993))
1((0 0 -0.00299995))
1((0 0 0.00299998))
0()
0()
1((0 0 0.00299991))
0()
1((0 0 0.00299988))
1((0 0 0.00299997))
0()
1((0 0 -0.00299991))
0()
1((0 0 0.00299998))
0()
0()
0()
1((0 0 -0.00299993))
0()
1((0 0 -0.00299989))
0()
1((0 0 -0.00299992))
0()
1((0 0 -0.00299992))
0()
1((0 0 -0.00299992))
0()
1((0 0 0.003))
0()
0()
1((0 0 0.00299993))
1((0 0 0.00299992))
0()
0()
1((0 0 0.0029999))
1((0 0 -0.00299992))
1((0 0 0.00299987))
1((0 0 0.00299985))
1((0 0 0.00299986))
1((0 0 -0.00299987))
1((0 0 0.00299988))
0()
0()
0()
2((0.00299953 0 4.33681e-19) (0 0 0.00299993))
1((0.00299976 0 0))
1((-0.00299949 0 0))
1((1.73472e-18 0 0.00299997))
0()
0()
0()
1((0 0 0.00299994))
1((0 0 -0.00299999))
0()
1((-6.93889e-18 0 -0.003))
1((0 0 0.00299992))
0()
1((6.93889e-18 0 -0.0029998))
1((0 0 0.00299987))
1((0 0 -0.00299988))
0()
1((0 0 -0.00299988))
0()
1((0 0 -0.00299993))
1((0 0 0.00299986))
0()
0()
0()
0()
0()
0()
0()
0()
0()
1((0 0 -0.00299994))
1((0 0 -0.00299995))
0()
1((0 0 0.00299999))
0()
1((0 0 -0.00299993))
1((0 0 0.00299996))
1((0 0 -0.00299985))
1((0 0 0.00299987))
1((0 0 0.00299999))
1((0 0 -0.00299996))
0()
0()
1((0 0 -0.00299994))
1((0 0 0.00299992))
0()
0()
1((0 0 -0.00299986))
1((0 0 0.00299981))
0()
1((0 0 -0.00299994))
0()
1((0 0 0.00299984))
0()
1((0 0 -0.00299985))
1((0 0 0.00299985))
0()
0()
1((0 0 0.00299997))
0()
0()
1((0 0 -0.00299996))
1((0 0 0.003))
0()
1((0 0 -0.00299992))
0()
1((0 0 0.00299989))
0()
1((-2.77556e-17 0 -0.00299991))
1((0 0 0.00299989))
1((0 0 -0.00299988))
1((0 0 -0.00299998))
1((0 0 -0.00299995))
0()
0()
0()
1((0 0 0.00299999))
1((0 0 -0.00299992))
1((0 0 -0.0029999))
0()
0()
0()
1((0.00299947 0 0))
2((-0.00299986 0 0) (1.73472e-18 0 -0.00299995))
2((-0.00299977 0 0) (0 0 0.00299995))
1((0 0 0.00299992))
1((0 0 -0.00299992))
0()
0()
1((0 0 -0.00299992))
1((0 0 0.003))
0()
0()
1((0 0 -0.00299992))
1((0 0 0.00299992))
1((0 0 -0.00299993))
1((0 0 0.00299992))
1((0 0 0.00299981))
1((0 0 0.0029999))
1((0 0 0.00299982))
0()
1((0 0 -0.00299987))
1((0 0 0.00299998))
1((0 0 0.00299996))
0()
0()
1((0 0 0.003))
1((0 0 0.00299995))
1((0 0 0.00299998))
0()
0()
0()
1((0 0 -0.00299995))
0()
0()
0()
1((0 0 -0.00299988))
1((0 0 0.00299998))
1((0 0 -0.00299989))
0()
0()
1((0 0 0.00299997))
0()
1((0 0 0.00299986))
1((0 0 -0.00299992))
1((0 0 0.00299994))
1((0 0 -0.00299995))
0()
0()
1((0 5.55112e-17 -0.00299993))
0()
1((0 0 -0.00299986))
0()
0()
0()
1((0 0 -0.00299996))
0()
0()
1((0 0 -0.00299992))
1((0 0 0.00299994))
0()
1((0 0 -0.00299999))
0()
1((0 0 0.00299991))
0()
1((0 0 -0.00299991))
1((0 0 0.00299985))
0()
1((0 0 0.00299982))
1((0 0 -0.0029999))
1((0 0 -0.00299989))
0()
0()
1((-0.00299999 0 0))
0()
0()
0()
0()
1((0 0 -0.00299995))
0()
1((0 0 -0.00299992))
0()
1((0 0 -0.00299986))
0()
1((0 0 -0.00299994))
0()
1((0 0 -0.00299993))
0()
1((0 0 -0.00299991))
1((0 0 0.00299994))
0()
0()
1((0 0 -0.00299998))
0()
1((0 0 0.00299999))
1((0 0 -0.00299992))
0()
1((0 0 0.00299995))
1((0 0 -0.0029999))
1((0 0 0.00299992))
1((0 0 0.00299996))
0()
1((0 0 0.0029999))
1((0 0 -0.00299991))
0()
1((0 0 -0.00299991))
0()
1((0 0 -0.00299991))
0()
0()
1((0 0 0.00299986))
1((0 0 -0.00299986))
1((0 0 -0.0029999))
1((0 0 0.00299993))
0()
0()
0()
1((0 0 0.00299992))
0()
0()
0()
1((0 0 0.00299994))
0()
1((0 0 -0.0029999))
1((0 0 0.00299986))
0()
1((0 0 -0.00299995))
1((0 0 0.00299991))
0()
0()
1((0 0 -0.00299986))
1((0 0 0.00299988))
0()
1((0 0 0.00299989))
1((0 0 0.00299996))
1((-2.77556e-17 0 -0.00299994))
1((0 0 -0.00299988))
0()
1((0 0 0.00299998))
0()
1((0 0 -0.00299992))
1((0 0 0.00299988))
1((0 0 -0.00299988))
1((0 0 0.00299996))
1((0 0 -0.00299991))
0()
0()
1((0 0 0.00299992))
1((0.00299951 0 4.33681e-19))
0()
0()
0()
0()
0()
1((0 0 0.00299989))
0()
0()
0()
0()
0()
0()
0()
1((0 0 0.00299985))
0()
1((0 0 0.00299991))
1((0 0 0.00299996))
0()
1((0 0 0.00299989))
1((0 0 -0.00299992))
1((0 0 0.00299988))
0()
1((0 0 -0.0029999))
1((0 0 -0.00299991))
0()
0()
0()
0()
0()
0()
0()
0()
1((0 0 0.00299996))
0()
0()
0()
1((0 0 0.00299986))
1((0 0 0.00299999))
0()
0()
1((0 0 0.00299996))
0()
1((0 0 0.00299987))
0()
0()
0()
0()
0()
1((0 0 -0.00299987))
1((0 0 0.00299992))
1((0 0 -0.00299999))
0()
0()
0()
0()
0()
0()
0()
0()
0()
0()
0()
1((0 0 -0.00299996))
1((0 0 0.00299992))
1((0 0 -0.00299997))
0()
0()
1((0 0 0.00299992))
0()
0()
1((0 0 -0.00299997))
0()
1((0 0 -0.00299987))
1((0 0 -0.00299993))
1((0 0 0.00299991))
1((0 0 0.00299993))
1((0 0 -0.00299992))
0()
0()
0()
2((0.00299955 0 0) (0 0 -0.00299995))
1((0 0 0.003))
0()
0()
0()
1((0 0 0.00299988))
1((0 0 -0.00299989))
1((0 0 -0.00299986))
0()
1((0 0 0.00299993))
0()
1((0 0 -0.00299988))
0()
0()
0()
0()
0()
0()
1((0 0 -0.00299996))
0()
0()
1((0 0 0.00299997))
1((0 0 0.00299997))
0()
1((0 0 0.00299993))
0()
0()
1((0 0 0.00299992))
1((0 0 -0.0029999))
1((0 0 0.00299989))
1((0 0 -0.00299992))
1((0 0 -0.00299986))
1((0 0 0.00299987))
1((0 0 0.00299993))
1((0 0 0.00299987))
1((0 0 -0.00299977))
1((0 0 -0.00299995))
0()
0()
0()
1((2.77556e-17 0 -0.00299992))
0()
1((0 0 0.00299991))
1((0 0 -0.00299987))
0()
0()
0()
1((0 0 0.00299993))
0()
0()
0()
0()
1((0 0 0.00299991))
1((0 0 -0.00299992))
1((0 0 0.00299996))
1((0 0 -0.00299976))
0()
1((0 0 -0.00299998))
0()
0()
0()
0()
1((0 0 -0.00299993))
0()
0()
1((0 0 -0.00299993))
1((0 0 0.003))
1((0 0 0.00299997))
0()
1((0 0 0.00299991))
0()
1((0 0 0.00299992))
0()
1((0.0029995 -5.55112e-17 4.33681e-19))
0()
1((-0.00299886 0 0))
0()
1((0 0 -0.00299991))
1((0 0 0.0029999))
0()
0()
0()
0()
1((0 0 0.00299992))
1((0 0 0.00299977))
0()
0()
0()
0()
1((0 0 0.00299996))
0()
1((0 0 0.00299997))
0()
0()
0()
0()
1((0 0 -0.00299988))
0()
1((0 -5.55112e-17 -0.00299995))
1((0 0 -0.00299995))
0()
0()
0()
0()
0()
0()
0()
0()
0()
1((0 0 0.0029999))
0()
0()
1((0 0 0.00299991))
1((0 0 -0.00299993))
0()
1((0 0 -0.00299994))
0()
0()
0()
0()
0()
1((0 0 0.0029999))
1((0 0 -0.003))
0()
1((0 0 -0.00299986))
1((0 0 0.00299985))
0()
0()
1((0 0 0.00299974))
0()
0()
1((0 0 -0.00299997))
1((0 0 -0.00299986))
0()
1((0 0 0.00299999))
1((0 0 -0.00299991))
1((0 0 0.00299989))
0()
0()
0()
0()
0()
0()
1((0 0 -0.00299993))
1((0 0 0.00299995))
0()
0()
1((0 0 -0.00299996))
0()
1((0 0 -0.00299992))
1((0 0 -0.00299999))
0()
0()
1((0.00299963 0 4.33681e-19))
0()
1((0 0 -0.00299992))
0()
0()
0()
1((0 0 -0.00299985))
0()
0()
0()
1((0 0 -0.00299989))
0()
1((0 0 -0.00299986))
0()
0()
0()
0()
1((0 0 0.00299999))
1((0 0 -0.00299997))
0()
1((0 0 0.00299991))
0()
0()
0()
0()
0()
1((0 0 0.00299992))
0()
0()
0()
0()
0()
0()
0()
0()
1((0 0 -0.00299978))
0()
0()
1((0 0 0.00299997))
0()
0()
1((0 0 -0.00299999))
0()
0()
0()
1((0 0 -0.00299998))
0()
0()
0()
0()
0()
0()
0()
0()
1((0 0 -0.00299983))
0()
0()
0()
0()
0()
0()
0()
0()
0()
1((0 0 -0.00299991))
0()
0()
0()
1((0 0 0.00299998))
0()
1((0 0 0.00299997))
1((0 0 0.00299993))
0()
0()
1((-0.00299977 0 0))
0()
0()
0()
0()
0()
0()
0()
0()
0()
0()
1((0 0 0.00299995))
0()
0()
0()
0()
0()
0()
0()
0()
1((0 0 -0.00299995))
0()
0()
0()
0()
1((0 0 0.00299999))
0()
0()
0()
0()
0()
0()
0()
0()
0()
0()
0()
1((0 0 0.00299973))
0()
0()
0()
0()
0()
0()
0()
0()
0()
0()
0()
0()
0()
0()
0()
0()
0()
0()
0()
0()
0()
0()
0()
0()
0()
1((0 0 -0.00299993))
1((0 0 0.00299996))
0()
0()
0()
0()
0()
0()
0()
0()
0()
1((0.00299962 0 0))
0()
0()
0()
1((0 0 0.00299999))
0()
0()
0()
0()
0()
0()
0()
0()
0()
0()
0()
0()
0()
0()
0()
0()
0()
1((0 0 0.00299999))
0()
0()
0()
0()
0()
0()
0()
0()
0()
0()
0()
0()
0()
0()
1((0 0 0.00299996))
0()
0()
0()
0()
0()
0()
0()
0()
0()
0()
0()
0()
0()
0()
0()
0()
0()
0()
0()
0()
0()
0()
0()
0()
0()
0()
0()
0()
0()
0()
0()
0()
0()
0()
0()
0()
0()
1((0.00299994 0 0))
1((0 0 0.00299998))
0()
1((-0.00299994 0 4.33681e-19))
0()
0()
0()
0()
0()
0()
0()
0()
0()
0()
0()
0()
0()
1((0 0 0.00299999))
0()
0()
0()
0()
0()
0()
0()
0()
0()
0()
0()
0()
0()
0()
0()
0()
0()
0()
0()
0()
0()
0()
0()
0()
0()
0()
0()
1((0 0 0.00299999))
0()
0()
0()
0()
0()
0()
0()
0()
0()
0()
0()
0()
0()
0()
0()
0()
0()
0()
1((0 0 0.00299998))
)


// ************************************************************************* //
