/*--------------------------------*- C++ -*----------------------------------*\
  =========                 |
  \\      /  F ield         | OpenFOAM: The Open Source CFD Toolbox
   \\    /   O peration     | Website:  https://openfoam.org
    \\  /    A nd           | Version:  8
     \\/     M anipulation  |
\*---------------------------------------------------------------------------*/
FoamFile
{
    version     2.0;
    format      ascii;
    class       labelField;
    location    "0/lagrangian/kinematicCloud";
    object      origId;
}
// * * * * * * * * * * * * * * * * * * * * * * * * * * * * * * * * * * * * * //


1578
(
2
3
69
141
142
143
213
283
355
354
425
426
496
497
568
639
710
750
749
827
788
828
789
134
205
276
277
347
348
419
490
491
561
562
632
633
703
704
774
39
40
110
775
111
181
252
323
394
464
465
535
536
606
607
677
678
37
75
114
113
184
185
256
255
326
327
397
467
468
537
538
609
608
680
751
752
821
822
4
70
144
214
215
284
285
356
427
498
499
569
570
640
641
711
712
751
829
790
791
135
136
206
830
207
278
279
349
350
420
421
492
563
634
635
705
776
41
112
182
183
254
253
324
325
396
395
466
467
537
608
679
711
744
712
745
115
116
186
257
328
398
399
469
470
539
540
541
610
611
681
682
754
753
823
824
5
6
71
72
145
146
217
216
286
287
357
358
428
429
500
571
642
643
713
714
753
752
792
137
208
209
831
280
351
422
423
493
494
564
565
636
706
707
777
778
42
43
113
114
184
185
255
326
397
468
538
539
609
610
713
680
681
117
187
746
188
258
259
329
330
400
471
542
612
613
683
755
757
825
826
7
73
147
218
288
289
359
430
431
502
501
572
573
644
715
754
832
793
794
138
139
833
210
281
282
352
353
424
495
566
637
638
708
44
779
115
186
256
257
327
328
398
399
469
470
540
611
682
714
748
715
118
119
190
747
189
260
401
402
472
473
543
544
614
615
684
685
686
756
758
827
828
8
74
75
148
149
220
219
290
360
361
432
503
574
645
646
716
717
755
756
795
835
140
141
834
211
212
283
354
425
426
497
496
567
568
639
709
710
45
46
780
781
116
117
187
188
258
259
329
330
400
471
541
542
612
613
716
717
684
683
120
749
191
261
262
331
332
403
474
545
616
617
687
759
760
829
9
10
76
150
151
221
291
292
362
363
433
434
504
505
575
576
647
718
757
758
796
797
836
142
213
284
285
356
355
427
498
569
570
640
641
711
712
782
47
48
118
119
783
189
260
331
402
401
472
473
544
543
614
615
686
685
751
718
121
122
193
750
192
263
264
333
404
405
475
476
546
547
619
618
688
689
761
830
831
11
12
77
78
152
222
223
293
364
435
506
507
577
578
648
649
719
720
759
798
837
143
144
214
215
286
357
428
429
499
500
571
642
713
49
784
120
190
191
261
262
332
333
403
404
474
545
616
687
752
719
720
753
123
124
194
265
334
335
336
406
407
477
478
548
549
620
690
762
763
832
13
14
79
153
224
294
295
365
366
436
437
508
579
650
721
722
760
761
799
800
838
839
145
216
217
287
288
358
359
430
501
502
572
573
643
644
714
715
785
50
51
121
786
122
192
193
263
264
334
405
475
476
547
546
617
618
689
721
722
688
125
195
196
754
266
267
338
337
408
479
480
551
550
621
622
691
764
833
15
16
80
154
155
225
296
367
438
439
509
510
580
581
651
652
723
762
763
801
802
840
146
147
841
218
289
360
361
431
432
503
574
645
716
787
52
53
124
123
194
265
335
336
406
407
477
478
548
549
619
690
755
723
756
126
127
197
198
268
339
409
410
481
552
623
692
693
766
765
834
835
17
18
82
81
156
157
226
227
297
298
368
369
440
511
582
583
653
654
724
725
764
803
842
148
149
220
219
290
291
362
433
504
505
575
576
646
647
717
718
788
789
54
125
195
196
266
267
337
338
408
409
479
550
620
621
692
725
758
691
724
128
757
199
269
270
340
341
411
412
413
484
482
483
553
554
624
625
694
695
767
768
836
19
83
158
228
229
299
300
371
370
441
442
513
512
584
655
726
765
804
805
843
150
844
221
292
293
363
364
434
435
506
577
648
719
55
56
126
790
127
197
198
268
339
410
480
481
551
552
622
623
693
694
726
759
130
200
201
272
129
271
342
343
414
485
555
556
626
696
770
769
837
838
20
84
85
159
160
230
231
301
372
443
514
515
585
586
656
657
727
728
766
767
806
807
846
151
152
845
222
223
294
365
436
507
508
578
579
649
650
720
721
791
792
57
58
128
199
270
269
340
341
412
411
482
483
553
554
624
695
727
728
760
761
132
202
131
273
274
344
345
415
416
486
487
557
558
627
628
697
698
771
839
840
21
22
86
87
161
162
232
233
302
303
373
374
444
445
516
587
658
729
730
769
768
808
153
847
224
295
296
367
366
437
438
509
580
651
722
59
129
793
130
200
201
271
272
342
413
484
555
625
626
696
697
729
730
762
203
204
205
133
275
346
417
418
488
559
629
699
700
772
841
23
24
88
163
234
304
375
376
446
447
517
518
588
589
659
660
731
770
809
849
848
154
155
225
226
297
368
439
510
511
581
582
652
653
723
724
794
795
60
61
131
132
202
203
273
343
344
415
414
485
486
557
556
627
628
698
731
763
764
134
135
206
276
277
347
348
419
420
489
490
560
631
630
701
774
773
842
843
25
26
89
90
164
165
166
235
236
305
306
377
448
519
590
661
662
732
733
771
772
810
811
850
156
227
228
298
299
369
370
440
441
512
583
654
655
725
796
797
62
133
204
274
275
345
346
416
417
487
488
558
629
699
700
733
732
765
766
207
208
136
137
278
279
349
350
421
491
492
561
562
632
633
702
703
775
777
776
844
845
27
28
91
167
237
238
307
308
378
379
449
450
520
521
591
592
663
734
773
774
812
813
851
157
158
852
229
300
371
442
443
514
513
584
585
656
726
727
798
63
64
134
135
205
206
276
277
347
418
489
559
560
630
631
701
702
734
735
767
768
138
209
280
351
422
423
493
563
634
704
778
846
847
29
30
93
94
92
168
169
239
309
380
451
452
522
523
593
594
664
665
735
736
775
814
853
159
230
231
301
302
372
373
444
515
586
587
657
658
728
799
65
136
800
207
278
348
349
419
420
490
491
561
632
703
736
769
140
139
210
211
282
281
352
353
425
424
495
496
566
494
564
565
636
635
705
706
781
779
780
848
849
31
95
170
171
241
240
310
311
382
381
453
524
595
666
667
737
738
776
777
815
816
854
855
160
161
232
303
374
375
445
446
516
517
588
659
729
730
801
66
137
138
208
209
280
279
350
351
421
492
562
563
633
634
704
705
737
738
770
771
141
142
212
283
354
426
497
567
637
638
707
782
850
32
33
96
172
173
174
244
242
312
313
383
384
454
455
525
526
596
597
668
739
778
817
856
857
162
163
234
233
304
305
376
447
518
589
660
661
731
802
67
68
139
210
281
352
422
423
493
494
564
565
635
636
706
739
772
213
214
143
284
285
355
356
427
428
498
499
500
568
569
639
640
708
709
783
784
851
97
98
99
175
245
243
314
385
456
527
528
598
599
669
670
740
741
779
780
818
819
858
164
235
306
377
448
449
519
520
590
591
662
732
733
803
804
69
70
140
141
211
212
282
283
353
354
424
425
495
566
637
707
708
740
741
773
774
145
144
215
216
287
286
357
358
429
501
571
570
641
642
710
785
852
853
854
100
101
102
103
246
317
315
316
387
388
386
457
458
529
600
671
742
781
820
821
860
859
165
166
236
237
307
308
378
379
450
521
592
663
734
805
496
567
638
709
742
775
146
217
288
359
430
572
643
711
713
712
714
855
856
104
459
530
601
672
743
782
)


// ************************************************************************* //
