/*--------------------------------*- C++ -*----------------------------------*\
  =========                 |
  \\      /  F ield         | OpenFOAM: The Open Source CFD Toolbox
   \\    /   O peration     | Website:  https://openfoam.org
    \\  /    A nd           | Version:  8
     \\/     M anipulation  |
\*---------------------------------------------------------------------------*/
FoamFile
{
    version     2.0;
    format      ascii;
    class       Cloud<passiveParticle>;
    location    "0/lagrangian/kinematicCloud";
    object      positions;
}
// * * * * * * * * * * * * * * * * * * * * * * * * * * * * * * * * * * * * * //

1578
(
(0.416673 0.275514 0.0316005 0.276213) 0 3104 2
(0.31117 0.36055 0.0305495 0.29773) 0 1 1
(0.13703 0.148186 0.299453 0.41533) 0 0 1
(0.207725 0.379983 0.39581 0.0164817) 1 0 2
(0.563317 0.147064 0.0622871 0.227332) 1 3105 1
(0.110528 0.428599 0.117529 0.343344) 1 3 1
(0.0550292 0.456335 0.0139474 0.474689) 2 2 2
(0.490575 0.251569 0.229726 0.0281297) 2 3106 2
(0.24026 0.038156 0.395987 0.325597) 2 5 2
(0.0519631 0.490153 0.259878 0.198005) 3 4 2
(0.261791 0.353243 0.377975 0.00699114) 3 3107 2
(0.429686 0.300823 0.16386 0.105632) 3 7 1
(0.0272466 0.470406 0.0435041 0.458844) 3 6 2
(0.404463 0.0853732 0.203727 0.306437) 3 6 1
(0.549171 0.0941327 0.241568 0.115128) 4 6 1
(0.478076 0.225856 0.0189358 0.277132) 4 8 1
(0.482168 0.242767 0.0873215 0.187744) 5 8 2
(0.0127887 0.432441 0.477441 0.0773287) 5 11 2
(0.502895 0.232384 0.0885337 0.176187) 5 10 2
(0.172045 0.201676 0.196156 0.430123) 6 3110 1
(0.439156 0.26426 0.0036543 0.29293) 6 3110 2
(0.499866 0.207865 0.233924 0.0583458) 6 13 2
(0.112061 0.0587671 0.427804 0.401369) 6 10 1
(0.0515848 0.350018 0.458067 0.140331) 7 12 1
(0.967679 0.00771336 0.0122101 0.0123974) 7 2536 2
(0.0373211 0.465179 0.354698 0.142802) 7 14 2
(0.260411 0.385954 0.159499 0.194136) 8 17 1
(0.403756 0.309785 0.00448164 0.281978) 8 3112 1
(0.272811 0.218808 0.160473 0.347909) 8 16 1
(0.7003 0.14907 0.133706 0.0169239) 9 16 1
(0.355412 0.310645 0.196996 0.136947) 9 18 2
(0.17627 0.395723 0.379659 0.0483479) 10 21 1
(0.485931 0.26553 0.0553305 0.193209) 10 3114 2
(0.623663 0.0156946 0.173402 0.187241) 10 21 2
(0.127673 0.420016 0.0308201 0.421491) 10 20 2
(0.343919 0.114897 0.311895 0.229289) 11 20 1
(0.166035 0.40231 0.33308 0.0985761) 11 3115 2
(0.58824 0.0539895 0.189756 0.168015) 11 23 2
(0.131461 0.0194834 0.398669 0.450387) 11 3115 1
(0.443444 0.262137 0.226613 0.0678055) 12 3116 2
(0.252864 0.234606 0.359762 0.152768) 12 25 2
(0.14986 0.408921 0.228345 0.212873) 12 24 2
(0.261119 0.115165 0.379403 0.244313) 12 22 1
(0.0979354 0.4652 0.36393 0.0729338) 13 27 1
(0.762809 0.134771 0.0273086 0.0751115) 13 3117 2
(0.229637 0.371014 0.34782 0.0515279) 13 26 2
(0.723654 0.0929599 0.154336 0.0290499) 14 26 1
(0.32343 0.211053 0.143379 0.322138) 14 28 1
(0.114444 0.458945 0.0676219 0.35899) 15 3119 2
(0.580972 0.193358 0.201447 0.0242229) 15 31 1
(0.278263 0.25934 0.117689 0.344708) 15 3119 1
(0.417168 0.000236598 0.27502 0.307575) 15 30 1
(0.166622 0.432835 0.256183 0.14436) 16 30 2
(0.240504 0.394401 0.211283 0.153812) 16 33 1
(0.637029 0.1132 0.0521539 0.197617) 16 3120 1
(0.0493005 0.224312 0.459242 0.267145) 16 33 2
(0.0961359 0.435788 0.0986373 0.369439) 17 32 2
(0.954068 0.00540316 0.0337141 0.0068143) 17 34 1
(0.00187644 0.380725 0.13448 0.482918) 17 34 1
(0.122719 0.454795 0.235839 0.186648) 18 3122 2
(0.324825 0.065294 0.288433 0.321448) 18 3122 1
(0.555354 0.206155 0.0388987 0.199592) 18 37 1
(0.0966044 0.124955 0.342877 0.435564) 18 36 1
(0.499209 0.23425 0.246101 0.020441) 19 36 2
(0.551851 0.240227 0.0983666 0.109555) 19 38 2
(0.13806 0.414821 0.0898988 0.357221) 19 39 1
(0.3975 0.315448 0.0070451 0.280007) 20 38 2
(0.0519563 0.00256903 0.455399 0.490076) 20 3124 1
(0.65312 0.0904526 0.099096 0.157332) 20 40 1
(0.260701 0.385793 0.316884 0.0366213) 21 3125 2
(0.296524 0.165435 0.335638 0.202404) 21 40 1
(0.41981 0.163023 0.110924 0.306244) 21 42 1
(0.146132 0.443073 0.0171726 0.393622) 22 3126 2
(0.898693 0.0667903 0.0226638 0.0118525) 22 45 1
(0.154845 0.438709 0.214023 0.192424) 22 44 2
(0.0187674 0.152776 0.506775 0.321682) 22 45 2
(0.4799 0.276203 0.0520417 0.191855) 23 1512 2
(0.682369 0.0198835 0.149658 0.148089) 23 44 1
(0.479989 0.243878 0.0354656 0.240667) 24 1481 1
(0.550927 0.210929 0.154786 0.0833579) 24 47 2
(0.386441 0.220074 0.293912 0.0995734) 25 47 1
(0.290622 0.370829 0.0194831 0.319066) 25 49 2
(0.0561943 0.208318 0.458867 0.27662) 25 50 2
(0.00205822 0.515116 0.367981 0.114845) 26 5 1
(0.392367 0.139706 0.287675 0.180251) 26 49 1
(0.659815 0.116087 0.037859 0.186238) 26 51 1
(0.288402 0.371944 0.0376732 0.30198) 27 51 2
(0.755597 0.138338 0.0049887 0.101076) 27 53 2
(0.090325 0.0299279 0.470993 0.408754) 27 54 2
(0.195823 0.385957 0.224158 0.194062) 28 53 2
(0.299231 0.334218 0.116631 0.24992) 28 56 1
(0.376034 0.23956 0.0885995 0.295807) 28 9 2
(0.252587 0.13308 0.22445 0.389883) 28 55 1
(0.124472 0.453942 0.396148 0.0254384) 29 55 2
(0.71901 0.12433 0.152803 0.00385628) 29 58 1
(0.260838 0.330045 0.0233711 0.385745) 29 57 1
(0.289322 0.369203 0.143949 0.197527) 30 59 2
(0.750162 0.141066 0.0676569 0.0411146) 30 57 2
(0.0909938 0.266363 0.470109 0.172534) 30 60 2
(0.322678 0.354805 0.178773 0.143744) 31 15 1
(0.586485 0.0593046 0.22284 0.13137) 31 62 2
(0.0833136 0.142353 0.332131 0.442203) 31 15 2
(0.339558 0.0051383 0.346389 0.308914) 31 59 1
(0.319549 0.303206 0.356367 0.0208782) 32 61 1
(0.601021 0.183332 0.011796 0.203851) 32 63 2
(0.040132 0.444893 0.480217 0.034759) 32 64 2
(0.337743 0.314993 0.0184102 0.328853) 33 19 1
(0.0465155 0.139907 0.491677 0.3219) 33 63 1
(0.0868414 0.296848 0.143588 0.472722) 33 19 2
(0.574938 0.196392 0.0197842 0.208886) 33 66 1
(0.0521398 0.393778 0.0962909 0.457791) 33 65 1
(0.898596 0.040276 0.0596123 0.00151577) 34 65 2
(0.158411 0.433135 0.239614 0.168841) 34 67 2
(0.0155038 0.232335 0.476111 0.27605) 34 68 2
(0.671142 0.148289 0.0674229 0.113145) 35 23 1
(0.234899 0.366409 0.245278 0.153414) 35 69 2
(0.716778 0.157751 0.031966 0.0935045) 36 69 2
(0.328015 0.314399 0.0377498 0.319837) 36 71 1
(0.0672588 0.36799 0.0822117 0.482539) 37 27 2
(0.624725 0.0832268 0.203785 0.0882631) 37 71 1
(0.422266 0.103556 0.201476 0.272702) 37 73 1
(0.150288 0.427506 0.382253 0.039952) 38 73 2
(0.395632 0.250462 0.0355779 0.318327) 38 29 2
(0.464781 0.283762 0.218351 0.0331069) 38 76 1
(0.29933 0.108406 0.366477 0.225786) 38 76 2
(0.0563278 0.480153 0.21197 0.25155) 39 75 2
(0.723206 0.1336 0.0209782 0.122217) 39 31 2
(0.136088 0.446175 0.267363 0.150374) 39 78 1
(0.0374862 0.465073 0.424895 0.072546) 39 77 2
(0.91313 0.00649035 0.0272363 0.053143) 40 77 1
(0.137364 0.295015 0.120113 0.447507) 40 79 1
(0.153498 0.407094 0.150388 0.28902) 41 35 1
(0.352727 0.121311 0.186232 0.339729) 41 35 2
(0.528481 0.251932 0.0777687 0.141818) 41 82 1
(0.237907 0.0456208 0.351565 0.364907) 41 81 1
(0.35652 0.337889 0.206274 0.0993168) 42 81 2
(0.118868 0.424412 0.16086 0.29586) 42 84 1
(0.693989 0.169146 0.036203 0.100662) 42 83 2
(0.256 0.36575 0.0186697 0.35958) 43 83 2
(0.794561 0.0104962 0.0760698 0.118873) 43 85 1
(0.0710495 0.063515 0.384821 0.480614) 43 39 2
(0.154876 0.226266 0.406455 0.212403) 44 85 1
(0.279935 0.343917 0.235758 0.14039) 44 41 1
(0.398566 0.248465 0.28605 0.0669193) 44 88 2
(0.299327 0.366218 0.0939734 0.240482) 44 87 2
(0.650419 0.190934 0.136905 0.021742) 45 87 2
(0.0544974 0.0687827 0.488792 0.387928) 45 87 1
(0.389848 0.321221 0.142066 0.146865) 45 89 2
(0.00740084 0.0120663 0.480173 0.500359) 45 90 2
(0.413152 0.2853 0.070174 0.231375) 46 45 1
(0.267971 0.34985 0.0604259 0.321753) 46 92 1
(0.159033 0.230128 0.206463 0.404377) 46 91 1
(0.682609 0.14256 0.166702 0.0081293) 47 91 2
(0.00435526 0.237813 0.243866 0.513966) 47 46 2
(0.479984 0.047565 0.228599 0.243851) 47 1513 1
(0.311806 0.359549 0.233158 0.0954865) 48 48 1
(0.174326 0.396689 0.276248 0.152737) 48 95 1
(0.217132 0.0237133 0.351573 0.407581) 48 48 2
(0.440497 0.0687958 0.263595 0.227112) 48 95 2
(0.568409 0.231937 0.0482654 0.151389) 49 50 1
(0.0435062 0.494391 0.312156 0.149947) 49 97 1
(0.342564 0.188207 0.344872 0.124357) 49 97 2
(0.191693 0.298355 0.388013 0.121938) 50 96 1
(0.434228 0.273042 0.280239 0.0124916) 50 52 1
(0.404183 0.0268738 0.287178 0.281765) 50 98 1
(0.0568294 0.455427 0.080473 0.407271) 50 98 2
(0.551496 0.015157 0.240392 0.192955) 51 98 1
(0.0916511 0.470331 0.403451 0.0345663) 51 54 1
(0.497283 0.134434 0.133086 0.235196) 51 100 1
(0.452199 0.261327 0.257755 0.0287189) 52 100 1
(0.598338 0.216999 0.103767 0.0808957) 52 102 2
(0.349615 0.309031 0.222337 0.119017) 53 102 2
(0.00395672 0.0417602 0.481856 0.472427) 53 102 1
(0.371478 0.143608 0.186823 0.298092) 53 58 2
(0.321731 0.355284 0.0018856 0.3211) 53 105 1
(0.020811 0.272854 0.232893 0.473442) 53 104 1
(0.141089 0.413299 0.118087 0.327525) 54 60 1
(0.781307 0.098053 0.0097141 0.110926) 54 107 1
(0.741747 0.144965 0.105859 0.00742946) 55 62 1
(0.017086 0.507613 0.193608 0.281692) 55 108 2
(0.267271 0.045608 0.350412 0.336709) 55 109 2
(0.00747064 0.505017 0.480095 0.00741807) 55 106 1
(0.709264 0.161513 0.117224 0.0119988) 56 111 1
(0.282064 0.35471 0.0203849 0.342841) 56 110 1
(0.664443 0.183916 0.103813 0.0478285) 57 110 2
(0.0182925 0.413902 0.506997 0.0608086) 57 113 2
(0.378118 0.32709 0.0596216 0.23517) 57 112 2
(0.0986049 0.0857393 0.466848 0.348808) 58 112 1
(0.246722 0.392775 0.160032 0.200471) 58 68 1
(0.519092 0.218919 0.224313 0.0376762) 58 115 2
(0.0132638 0.380596 0.0966294 0.509511) 58 114 1
(0.00689226 0.512697 0.236409 0.244002) 59 70 1
(0.720231 0.12493 0.0419568 0.112882) 59 117 1
(0.0626589 0.248153 0.23665 0.452538) 59 70 2
(0.101635 0.221125 0.244193 0.433047) 59 116 1
(0.244529 0.361601 0.0774333 0.316437) 60 72 1
(0.414537 0.276574 0.0862278 0.222661) 60 119 1
(0.400947 0.105031 0.21063 0.283392) 60 72 2
(0.186157 0.039541 0.383514 0.390787) 60 118 1
(0.374167 0.318323 0.204262 0.103247) 61 118 2
(0.0745448 0.446572 0.04504 0.433844) 61 121 1
(0.482863 0.274716 0.152919 0.0895024) 61 120 2
(0.542988 0.212371 0.0383811 0.206261) 62 120 2
(0.485315 0.197004 0.074303 0.243379) 62 122 1
(0.548967 0.0880388 0.241272 0.121722) 63 122 1
(0.0272951 0.291499 0.178688 0.502518) 63 78 2
(0.425789 0.0767832 0.226479 0.270948) 63 124 1
(0.214009 0.376836 0.0635724 0.345583) 64 80 1
(0.392446 0.319924 0.220502 0.0671283) 64 127 1
(0.81238 0.0287378 0.0645249 0.0943577) 65 82 2
(0.167318 0.432485 0.174085 0.226112) 65 126 2
(0.032185 0.467768 0.281263 0.218784) 65 129 1
(0.790998 0.0780437 0.120642 0.0103168) 66 131 2
(0.087936 0.126321 0.345858 0.439885) 66 84 2
(0.0819224 0.453784 0.451473 0.0128212) 66 128 1
(0.00411184 0.291194 0.514094 0.1906) 67 130 1
(0.296654 0.367837 0.15606 0.179449) 67 86 1
(0.382119 0.29278 0.0357223 0.289379) 67 133 1
(0.441096 0.263313 0.0324256 0.263165) 67 132 2
(0.088378 0.0421641 0.429628 0.439829) 67 132 1
(0.50849 0.229865 0.158458 0.103187) 68 132 2
(0.540717 0.245549 0.190774 0.0229595) 68 134 2
(0.413519 0.230162 0.304877 0.0514425) 69 134 1
(0.0113666 0.47817 0.498807 0.011656) 69 90 1
(0.499666 0.133924 0.100112 0.266298) 69 136 1
(0.626496 0.142033 0.202669 0.0288018) 70 136 1
(0.416892 0.281317 0.166377 0.135413) 70 138 2
(0.460622 0.25389 0.17452 0.110968) 71 140 1
(0.11912 0.456586 0.271125 0.153169) 71 93 1
(0.479831 0.243919 0.182814 0.0934356) 71 1514 2
(0.479906 0.136549 0.276184 0.10736) 72 1483 2
(0.577828 0.220613 0.00661063 0.194948) 72 141 1
(0.343357 0.139767 0.344464 0.172413) 73 141 1
(0.118347 0.4249 0.323859 0.132894) 73 143 2
(0.320106 0.356061 0.236205 0.0876289) 74 99 1
(0.278678 0.344506 0.0409672 0.335849) 74 146 1
(0.146472 0.436092 0.137432 0.280004) 75 145 2
(0.54805 0.156648 0.0531705 0.242131) 75 101 2
(0.105654 0.433737 0.0978675 0.362742) 75 148 1
(0.219358 0.0467609 0.32743 0.406451) 75 147 1
(0.107675 0.430018 0.340649 0.121658) 76 147 2
(0.131037 0.406762 0.0438748 0.418326) 76 103 2
(0.533861 0.216911 0.151768 0.09746) 76 150 1
(0.31112 0.217456 0.110824 0.3606) 76 149 1
(0.634976 0.166378 0.00967365 0.188972) 77 149 2
(0.398506 0.28458 0.170299 0.146615) 77 151 2
(0.290323 0.0379663 0.300699 0.371012) 78 107 2
(0.513891 0.226911 0.0440847 0.215113) 78 107 1
(0.41835 0.173439 0.274643 0.133567) 78 154 2
(0.0754325 0.47835 0.272904 0.173314) 79 109 1
(0.690699 0.121854 0.0167324 0.170715) 79 155 1
(0.246167 0.184914 0.360774 0.208145) 79 153 1
(0.316108 0.325813 0.144767 0.213311) 80 155 2
(0.478707 0.130953 0.113566 0.276774) 80 111 2
(0.254048 0.0260001 0.389121 0.33083) 80 158 2
(0.20809 0.379825 0.401182 0.0109023) 81 157 2
(0.500491 0.265897 0.164539 0.0690729) 81 160 1
(0.416322 0.16603 0.141965 0.275683) 81 159 1
(0.527797 0.219934 0.0156018 0.236668) 82 159 2
(0.527892 0.252219 0.112347 0.107543) 82 161 2
(0.415551 0.276067 0.267653 0.0407289) 83 161 2
(0.109114 0.429409 0.402299 0.0591784) 83 164 1
(0.629898 0.168904 0.00609788 0.195101) 83 163 2
(0.720336 0.123708 0.0973382 0.0586172) 84 165 2
(0.32556 0.353374 0.101449 0.219617) 84 163 2
(0.290968 0.370479 0.338364 0.00018876) 85 165 1
(0.652689 0.0666664 0.0908362 0.189809) 85 167 1
(0.0588544 0.454429 0.00200107 0.484716) 85 167 2
(0.333262 0.15369 0.317217 0.195831) 86 167 1
(0.252818 0.35744 0.341071 0.0486707) 86 123 1
(0.480748 0.0749107 0.243471 0.20087) 86 170 2
(0.0486094 0.491832 0.168951 0.290608) 86 169 2
(0.347398 0.31015 0.322817 0.0196347) 87 172 1
(0.541137 0.23748 0.00810225 0.21328) 87 125 2
(0.146508 0.251273 0.442887 0.159332) 87 172 2
(0.0589304 0.486704 0.33732 0.117046) 87 171 2
(0.899116 0.0665044 0.0140909 0.0202885) 88 127 1
(0.121788 0.392946 0.0623019 0.422963) 88 173 1
(0.166978 0.206351 0.194017 0.432654) 89 129 2
(0.221623 0.146743 0.258595 0.373038) 89 175 1
(0.713762 0.126972 0.101881 0.0573846) 89 176 1
(0.571144 0.0517996 0.17877 0.198287) 90 131 2
(0.3168 0.32543 0.152019 0.205751) 90 178 1
(0.107195 0.10718 0.443143 0.342483) 90 178 2
(0.365724 0.333287 0.00228912 0.2987) 90 131 1
(0.275121 0.378576 0.0959084 0.250395) 91 177 2
(0.775286 0.120592 0.00792048 0.0962022) 91 179 1
(0.0358253 0.474846 0.413596 0.0757325) 92 135 1
(0.171725 0.398004 0.273358 0.156913) 92 182 1
(0.0936422 0.469319 0.119304 0.317735) 92 181 2
(0.435775 0.0677769 0.298257 0.198191) 92 182 2
(0.346724 0.342314 0.279123 0.0318382) 93 137 1
(0.387993 0.0198554 0.289866 0.302286) 93 181 1
(0.0664982 0.482892 0.216739 0.233871) 93 183 2
(0.376461 0.138421 0.327912 0.157206) 93 184 2
(0.455308 0.256206 0.218468 0.0700185) 94 139 1
(0.163275 0.102812 0.299418 0.434495) 94 185 1
(0.123611 0.446979 0.046517 0.382893) 94 186 1
(0.162834 0.434721 0.023875 0.37857) 94 185 2
(0.682454 0.174851 0.00386435 0.138832) 95 185 2
(0.266725 0.106622 0.247347 0.379306) 95 140 2
(0.312591 0.0837082 0.327572 0.276128) 95 187 2
(0.498861 0.234455 0.182029 0.0846552) 96 1484 1
(0.373188 0.00673292 0.291709 0.328369) 96 142 2
(0.218308 0.147146 0.375057 0.259488) 96 189 2
(0.281848 0.317612 0.057598 0.342942) 97 144 2
(0.37446 0.192753 0.325822 0.106965) 97 188 1
(0.371878 0.0887249 0.209195 0.330202) 97 190 1
(0.0396435 0.496329 0.400165 0.0638624) 98 190 2
(0.768966 0.0572913 0.0994898 0.0742533) 98 190 1
(0.0740369 0.0232106 0.455923 0.44683) 98 146 2
(0.29458 0.117153 0.219419 0.368848) 98 192 1
(0.659411 0.024304 0.154186 0.162099) 99 192 1
(0.339989 0.281547 0.0510406 0.327423) 99 194 1
(0.677983 0.14486 0.07356 0.103597) 100 194 2
(0.356438 0.309668 0.158489 0.175405) 100 196 2
(0.0109475 0.353608 0.478369 0.157075) 100 197 2
(0.380153 0.304599 0.258721 0.0565266) 101 152 1
(0.296858 0.367704 0.331449 0.00399011) 101 199 1
(0.114456 0.0224021 0.431178 0.431963) 101 152 2
(0.193688 0.185386 0.386979 0.233947) 102 198 1
(0.895692 0.0359851 0.0464433 0.0218799) 102 200 2
(0.048982 0.354832 0.488812 0.107374) 103 200 1
(0.191306 0.420488 0.0436417 0.344564) 103 202 2
(0.393991 0.0696981 0.319141 0.21717) 103 203 2
(0.477694 0.246176 0.190498 0.0856323) 103 156 1
(0.00999168 0.480163 0.370428 0.139417) 104 158 1
(0.44268 0.10087 0.268769 0.187681) 104 202 1
(0.613501 0.147022 0.0300941 0.209382) 104 204 1
(0.331722 0.341109 0.0698236 0.257346) 105 204 2
(0.616776 0.0332525 0.171483 0.178488) 105 160 2
(0.0573912 0.455166 0.0301487 0.457294) 105 207 1
(0.0639478 0.116676 0.360366 0.45901) 105 206 1
(0.263314 0.384494 0.300566 0.0516259) 106 206 2
(0.12385 0.328553 0.125295 0.422302) 106 162 2
(0.546502 0.210607 0.0756453 0.167245) 106 209 1
(0.141723 0.327994 0.115803 0.414481) 106 208 1
(0.04021 0.209753 0.28628 0.463757) 107 164 2
(0.830819 0.0684555 0.0178535 0.0828716) 107 208 2
(0.15957 0.036231 0.400131 0.404068) 108 166 2
(0.70466 0.051636 0.163844 0.07986) 108 213 2
(0.0646503 0.483831 0.324377 0.127142) 108 166 1
(0.116173 0.353681 0.458054 0.0720913) 108 210 1
(0.324816 0.353731 0.212254 0.109199) 109 168 1
(0.165746 0.190438 0.400992 0.242825) 109 212 1
(0.241748 0.39527 0.127907 0.235075) 109 214 2
(0.390496 0.22464 0.295279 0.0895853) 109 215 2
(0.625816 0.170949 0.0709213 0.132314) 110 170 1
(0.189801 0.0220244 0.421247 0.366927) 110 214 1
(0.193974 0.386858 0.295092 0.124076) 110 216 2
(0.109398 0.343036 0.429147 0.11842) 110 217 2
(0.759897 0.115232 0.0182078 0.106663) 111 216 2
(0.282778 0.274992 0.0674668 0.374763) 111 218 1
(0.0460489 0.460806 0.130601 0.362545) 112 174 1
(0.644475 0.161918 0.175918 0.017689) 112 221 1
(0.228765 0.253097 0.116389 0.40175) 112 174 2
(0.368577 0.0443754 0.255198 0.33185) 112 220 1
(0.609645 0.105806 0.085783 0.198767) 113 176 2
(0.0687853 0.199472 0.481752 0.249991) 113 223 2
(0.263992 0.384141 0.192913 0.158955) 113 223 1
(0.227161 0.372912 0.305582 0.0943446) 113 220 2
(0.919789 0.037915 0.0183562 0.0239401) 114 224 1
(0.129155 0.45157 0.0798837 0.339392) 114 222 2
(0.0339844 0.376524 0.499022 0.0904698) 115 224 1
(0.0974388 0.465073 0.265444 0.172044) 115 180 1
(0.583248 0.215723 0.192229 0.00879986) 115 227 2
(0.302724 0.0579551 0.306817 0.332503) 115 180 2
(0.169106 0.20282 0.431586 0.196488) 116 226 1
(0.925856 0.0209341 0.0126479 0.0405621) 116 228 2
(0.0332382 0.469068 0.0680955 0.429599) 117 228 2
(0.862114 0.0638991 0.0183686 0.0556181) 117 230 1
(0.053656 0.489312 0.191904 0.265128) 118 230 2
(0.371923 0.297912 0.163914 0.166251) 118 233 1
(0.437613 0.285004 0.0123316 0.265052) 118 232 1
(0.381289 0.309823 0.142691 0.166197) 119 187 1
(0.262584 0.352592 0.326487 0.0583365) 119 234 1
(0.479943 0.206055 0.0378372 0.276165) 119 1516 1
(0.0866939 0.472439 0.231553 0.209314) 120 189 1
(0.479974 0.00788048 0.243873 0.268273) 120 1485 2
(0.583004 0.109136 0.0834645 0.224396) 120 235 1
(0.304807 0.335143 0.183503 0.176547) 121 235 2
(0.147044 0.410463 0.103569 0.338924) 121 238 1
(0.487937 0.266519 0.186569 0.0589749) 121 237 2
(0.430048 0.277261 0.284711 0.00798002) 122 237 2
(0.123591 0.454346 0.107818 0.314245) 122 240 1
(0.61217 0.210054 0.0997302 0.0780456) 122 239 2
(0.00563088 0.0157856 0.481045 0.497539) 123 239 1
(0.339344 0.314183 0.200653 0.14582) 123 239 2
(0.261621 0.353054 0.0393813 0.345944) 123 242 1
(0.406125 0.153658 0.159426 0.280792) 123 195 2
(0.0911243 0.210326 0.260254 0.438296) 123 241 1
(0.19055 0.420877 0.0547863 0.333786) 124 197 1
(0.705505 0.131089 0.0642132 0.0991923) 124 244 1
(0.124684 0.385184 0.0363297 0.453802) 124 243 1
(0.82681 0.0883938 0.0502476 0.0345482) 125 243 2
(0.221112 0.373277 0.247439 0.158172) 125 245 2
(0.180085 0.425148 0.293366 0.101401) 126 248 1
(0.379942 0.293854 0.265019 0.0611848) 126 201 1
(0.34805 0.157911 0.309803 0.184235) 126 248 2
(0.257099 0.244312 0.387592 0.110996) 127 247 1
(0.803045 0.113733 0.000885359 0.0823369) 127 249 1
(0.139586 0.420766 0.157445 0.282203) 128 249 2
(0.439872 0.238853 0.0573514 0.263924) 128 205 2
(0.213554 0.409376 0.0962677 0.280802) 128 252 1
(0.278515 0.0836801 0.26091 0.376895) 128 251 1
(0.028721 0.469505 0.41304 0.0887344) 129 251 2
(0.663712 0.0241998 0.151994 0.160095) 129 251 1
(0.392012 0.285077 0.00276892 0.320142) 129 253 1
(0.553948 0.208401 0.119588 0.118063) 130 253 2
(0.117052 0.357387 0.425329 0.100231) 130 256 2
(0.490366 0.270957 0.0182102 0.220467) 130 255 2
(0.112314 0.127882 0.459994 0.29981) 131 255 1
(0.309733 0.350112 0.0771496 0.263006) 131 211 1
(0.50147 0.215328 0.265395 0.0178067) 131 258 2
(0.15093 0.215561 0.225111 0.408399) 131 211 2
(0.407294 0.312511 0.0940242 0.18617) 132 213 1
(0.292125 0.339951 0.0232039 0.34472) 132 260 1
(0.410724 0.278501 0.0891002 0.221674) 132 259 2
(0.06884 0.00720545 0.442225 0.48173) 132 259 1
(0.0264292 0.210931 0.470644 0.291996) 132 257 1
(0.576354 0.195692 0.147491 0.0804623) 133 259 2
(0.407624 0.281343 0.235582 0.0754507) 133 261 2
(0.629745 0.170806 0.168976 0.0304726) 134 261 1
(0.418702 0.182534 0.124252 0.274512) 134 263 1
(0.0975255 0.435096 0.0376048 0.429773) 135 219 1
(0.286638 0.293419 0.0794046 0.340538) 135 219 2
(0.538818 0.0253762 0.214453 0.221353) 135 263 1
(0.400213 0.0534545 0.315985 0.230347) 135 266 2
(0.0834582 0.474423 0.243847 0.198272) 136 265 2
(0.67293 0.144723 0.0349727 0.147374) 136 221 2
(0.20611 0.38079 0.292023 0.121077) 136 268 1
(0.0124638 0.293518 0.50993 0.184089) 136 268 2
(0.00830368 0.511478 0.425618 0.0546003) 136 267 2
(0.107457 0.322089 0.140301 0.430153) 137 269 1
(0.942229 0.00249366 0.0450326 0.0102449) 137 267 1
(0.324493 0.120947 0.200638 0.353922) 138 225 2
(0.554219 0.207202 0.0940668 0.144511) 138 272 1
(0.206448 0.0763051 0.336632 0.380616) 138 271 1
(0.128371 0.419676 0.177261 0.274692) 138 225 1
(0.416573 0.275578 0.235732 0.0721168) 139 271 2
(0.629448 0.169114 0.0440331 0.157405) 139 273 2
(0.125477 0.453391 0.0768758 0.344257) 139 274 1
(0.327014 0.352646 0.0706196 0.24972) 140 273 2
(0.167487 0.131335 0.301049 0.400128) 140 229 2
(0.532294 0.142464 0.250003 0.075239) 140 276 2
(0.108704 0.461798 0.210141 0.219357) 141 231 1
(0.141731 0.22497 0.445282 0.188016) 141 275 1
(0.054844 0.0781407 0.396525 0.47049) 141 231 2
(0.789186 0.0382303 0.121513 0.0510705) 141 278 2
(0.0285903 0.0133071 0.472691 0.485411) 141 278 2
(0.674882 0.138218 0.163073 0.0238272) 142 277 1
(0.412415 0.0271961 0.250598 0.309791) 142 233 2
(0.166201 0.150893 0.433052 0.249854) 142 280 2
(0.375878 0.232958 0.29593 0.0952336) 143 279 1
(0.451578 0.169855 0.120503 0.258063) 143 234 2
(0.204794 0.137568 0.413732 0.243905) 143 281 2
(0.479822 0.243941 0.0537386 0.222498) 144 1486 1
(0.480244 0.0845066 0.243725 0.191524) 144 283 2
(0.0626936 0.484749 0.164883 0.287674) 144 282 2
(0.14665 0.410522 0.374645 0.0681831) 145 285 1
(0.790634 0.0354249 0.120834 0.0531078) 145 285 2
(0.181238 0.425531 0.0133174 0.379914) 145 284 2
(0.0649544 0.176994 0.483663 0.274389) 146 284 1
(0.654798 0.156458 0.169163 0.0195803) 146 286 2
(0.611345 0.161576 0.178189 0.048891) 147 286 1
(0.41543 0.276127 0.204692 0.103751) 147 288 2
(0.555455 0.238434 0.174969 0.0311419) 148 288 2
(0.0700777 0.448809 0.422033 0.0590803) 148 291 1
(0.416996 0.0386384 0.236739 0.307627) 148 244 2
(0.264392 0.293613 0.35205 0.0899447) 148 291 2
(0.224826 0.403729 0.120346 0.251099) 149 246 1
(0.0986972 0.181943 0.466791 0.252569) 149 290 1
(0.0308059 0.276392 0.224373 0.468429) 149 246 2
(0.654007 0.145752 0.189148 0.011094) 149 293 2
(0.0124366 0.421673 0.509925 0.0559659) 150 292 1
(0.961518 0.0353966 0.00119748 0.0018877) 150 248 1
(0.0305189 0.500883 0.344388 0.12421) 150 294 2
(0.323008 0.354642 0.284101 0.0382488) 151 250 1
(0.293857 0.336911 0.186571 0.182661) 151 297 1
(0.0508048 0.0582551 0.400188 0.490753) 151 250 2
(0.399189 0.0853454 0.200665 0.314801) 151 296 1
(0.543963 0.145428 0.244152 0.0664568) 152 296 1
(0.418185 0.307042 0.270718 0.00405603) 152 298 2
(0.37878 0.17141 0.123064 0.326746) 153 254 2
(0.240735 0.35461 0.381573 0.0230818) 153 301 2
(0.128138 0.452077 0.0473098 0.372475) 154 256 1
(0.0097324 0.238542 0.51128 0.240445) 154 300 1
(0.718537 0.124594 0.0163611 0.140508) 154 303 1
(0.0474376 0.459871 0.032551 0.46014) 154 302 1
(0.888102 0.0720315 0.0148329 0.0250336) 155 304 2
(0.658085 0.152066 0.0350327 0.154817) 156 306 1
(0.0708535 0.448431 0.0308736 0.449842) 156 304 2
(0.424535 0.22038 0.271574 0.0835119) 157 306 1
(0.00676994 0.486788 0.500726 0.00571594) 157 262 1
(0.548559 0.090476 0.151392 0.209573) 157 308 1
(0.0334933 0.467106 0.445472 0.0539291) 158 308 2
(0.405872 0.0661132 0.280921 0.247094) 158 308 1
(0.341593 0.313047 0.327016 0.018345) 158 264 1
(0.344876 0.147089 0.311417 0.196618) 158 311 2
(0.0504587 0.490914 0.240952 0.217675) 158 310 2
(0.152996 0.439638 0.326632 0.0807337) 159 313 1
(0.724655 0.121538 0.0890245 0.0647824) 159 266 1
(0.141429 0.44542 0.386517 0.0266331) 159 312 2
(0.810947 0.0400511 0.078379 0.0706229) 160 312 1
(0.238138 0.229419 0.167663 0.364779) 160 314 1
(0.3696 0.164033 0.167305 0.299061) 161 270 2
(0.176472 0.395626 0.0876999 0.340202) 161 270 1
(0.506018 0.230892 0.159865 0.103225) 161 317 1
(0.312715 0.0119865 0.35978 0.315519) 161 317 2
(0.253022 0.386989 0.203506 0.156482) 162 316 2
(0.117508 0.425103 0.209097 0.248292) 162 319 1
(0.762198 0.0169931 0.118048 0.102761) 162 272 2
(0.179978 0.42617 0.0130466 0.380806) 163 318 2
(0.00940285 0.110503 0.40094 0.479154) 163 274 2
(0.803396 0.00960774 0.0741448 0.112851) 163 320 1
(0.0660404 0.0773362 0.456441 0.400182) 164 320 1
(0.631665 0.200306 0.000453167 0.167576) 164 276 1
(0.169125 0.342085 0.431581 0.0572089) 164 323 2
(0.303349 0.364482 0.18179 0.150379) 164 322 2
(0.176529 0.398312 0.386609 0.0385494) 165 325 1
(0.518982 0.224854 0.110999 0.145165) 165 278 1
(0.44415 0.142831 0.118977 0.294042) 165 324 1
(0.696916 0.1677 0.0366042 0.0987805) 166 280 1
(0.15704 0.33251 0.104287 0.406164) 166 326 1
(0.502058 0.232994 0.0925746 0.172374) 167 281 1
(0.0765404 0.445584 0.172391 0.305485) 167 328 1
(0.479881 0.151764 0.0947771 0.273578) 167 1518 1
(0.345532 0.343371 0.0704238 0.240673) 168 283 1
(0.233724 0.367313 0.275898 0.123065) 168 330 1
(0.0861366 0.33474 0.473077 0.106046) 169 329 1
(0.746928 0.112177 0.0304992 0.110396) 169 285 2
(0.0279597 0.481418 0.0165049 0.474118) 169 331 1
(0.257907 0.387194 0.32524 0.0296587) 170 287 1
(0.326742 0.352775 0.0735487 0.246934) 170 334 1
(0.0494248 0.470659 0.0233852 0.456531) 170 333 2
(0.227939 0.139684 0.230198 0.402179) 170 333 1
(0.147013 0.309364 0.133283 0.41034) 171 289 2
(0.64695 0.192662 0.120528 0.0398595) 171 336 1
(0.163197 0.292223 0.110029 0.434551) 171 335 1
(0.788244 0.0797014 0.121811 0.0102434) 172 335 1
(0.261086 0.353318 0.297085 0.0885115) 172 337 2
(0.66031 0.157794 0.014691 0.167205) 173 293 1
(0.0222095 0.472747 0.351197 0.153847) 173 340 1
(0.354913 0.306398 0.0556936 0.282995) 173 339 2
(0.219014 0.249754 0.378607 0.152624) 173 340 2
(0.272883 0.347391 0.161534 0.218192) 174 295 1
(0.233818 0.0890812 0.366926 0.310175) 174 339 1
(0.0300695 0.186907 0.281915 0.501108) 174 295 2
(0.656915 0.0580727 0.155404 0.129608) 174 342 2
(0.287158 0.34865 0.340279 0.0239134) 175 341 1
(0.708996 0.161658 0.032922 0.0964242) 175 343 2
(0.105261 0.00764085 0.455872 0.431227) 175 343 1
(0.233945 0.378142 0.249679 0.138234) 176 343 2
(0.386698 0.290741 0.0961738 0.226387) 176 346 1
(0.248743 0.286882 0.089302 0.375073) 176 299 2
(0.216974 0.215755 0.159627 0.407644) 176 345 1
(0.727002 0.0877006 0.120401 0.0648962) 177 345 1
(0.328609 0.351842 0.256962 0.0625877) 177 347 2
(0.0712509 0.480512 0.332591 0.115646) 178 350 1
(0.593888 0.219193 0.0192143 0.167705) 178 303 1
(0.321825 0.212501 0.322948 0.142727) 178 350 2
(0.365697 0.00694114 0.294066 0.333296) 178 303 2
(0.23354 0.153999 0.367245 0.245216) 179 349 1
(0.104297 0.450823 0.239502 0.205378) 179 305 1
(0.506845 0.150007 0.230419 0.112729) 179 352 2
(0.265906 0.0290404 0.321857 0.383197) 179 305 2
(0.0676521 0.482298 0.306322 0.143728) 180 307 1
(0.714004 0.0561128 0.15913 0.070753) 180 354 2
(0.164527 0.401601 0.0458352 0.388037) 180 353 2
(0.219412 0.171494 0.393674 0.215421) 180 351 1
(0.277209 0.102776 0.345255 0.274761) 181 353 1
(0.395724 0.285978 0.235115 0.0831838) 181 309 1
(0.290399 0.239014 0.37095 0.0996367) 181 356 2
(0.182588 0.392571 0.200566 0.224275) 181 355 2
(0.100442 0.464338 0.394207 0.0410135) 182 358 1
(0.771032 0.130009 0.0962069 0.00275171) 182 355 2
(0.274354 0.346679 0.347304 0.031663) 182 357 2
(0.0372405 0.345999 0.119237 0.497524) 183 313 2
(0.681647 0.0794421 0.175317 0.0635948) 183 357 1
(0.367049 0.139737 0.161735 0.33148) 183 359 1
(0.221538 0.393726 0.380124 0.00461173) 184 359 2
(0.425295 0.200922 0.102571 0.271212) 184 315 2
(0.453375 0.257168 0.224183 0.0652729) 184 362 1
(0.259611 0.102519 0.386345 0.251524) 184 362 2
(0.810442 0.0573587 0.0219604 0.110239) 185 317 2
(0.065835 0.450925 0.272991 0.21025) 185 364 1
(0.124188 0.454062 0.174406 0.247344) 185 361 2
(0.802176 0.100046 0.0101585 0.0876191) 186 366 1
(0.0622128 0.173716 0.279033 0.485038) 186 319 2
(0.0718208 0.268217 0.21201 0.447952) 186 365 1
(0.0253679 0.485241 0.472991 0.0164006) 186 363 1
(0.253088 0.357286 0.147352 0.242274) 187 321 1
(0.414234 0.309059 0.0442331 0.232475) 187 368 1
(0.165052 0.0636119 0.337723 0.433612) 187 367 1
(0.698836 0.106532 0.164022 0.0306108) 188 367 1
(0.317207 0.336394 0.00214688 0.344252) 188 369 1
(0.514693 0.196617 0.0298649 0.258825) 189 325 2
(0.330881 0.350705 0.217249 0.101165) 189 372 1
(0.250165 0.0918707 0.358772 0.299193) 189 372 2
(0.0510484 0.490641 0.240253 0.218058) 190 371 2
(0.0859834 0.440836 0.442574 0.0306063) 190 327 1
(0.483678 0.242839 0.159064 0.114419) 190 374 1
(0.143596 0.444362 0.244473 0.167569) 190 373 2
(0.655753 0.18825 0.140303 0.0156937) 191 375 1
(0.479951 0.267128 0.0788879 0.174033) 191 1519 2
(0.22134 0.194815 0.178372 0.405473) 192 330 2
(0.378189 0.198849 0.327047 0.0959157) 192 377 2
(0.124772 0.371225 0.421457 0.0825469) 193 376 1
(0.155758 0.438267 0.333132 0.0728425) 193 332 1
(0.350217 0.308736 0.0070672 0.33398) 193 379 1
(0.23266 0.367525 0.082371 0.317444) 193 378 2
(0.615273 0.161479 0.176218 0.0470299) 194 378 1
(0.433116 0.267294 0.224023 0.0755672) 194 380 2
(0.521533 0.255385 0.113059 0.110023) 195 380 2