/*--------------------------------*- C++ -*----------------------------------*\
  =========                 |
  \\      /  F ield         | OpenFOAM: The Open Source CFD Toolbox
   \\    /   O peration     | Website:  https://openfoam.org
    \\  /    A nd           | Version:  8
     \\/     M anipulation  |
\*---------------------------------------------------------------------------*/
FoamFile
{
    version     2.0;
    format      ascii;
    class       vectorField;
    location    "0/lagrangian/kinematicCloud";
    object      torque;
}
// * * * * * * * * * * * * * * * * * * * * * * * * * * * * * * * * * * * * * //


1578
(
(-2.08264e-07 1.596e-07 -5.5977e-07)
(-5.99463e-08 -1.0954e-06 7.9751e-07)
(2.00081e-06 -1.61837e-07 -1.2335e-07)
(8.47158e-07 -9.98234e-08 3.63669e-07)
(2.38302e-07 -9.76835e-08 -1.86265e-07)
(9.4279e-08 6.42102e-07 -2.74504e-07)
(6.43265e-08 2.62022e-07 -2.91838e-07)
(-8.08809e-08 -2.78765e-08 -4.67686e-07)
(1.57216e-07 8.81965e-08 4.72664e-07)
(3.57308e-07 3.99352e-07 -3.09452e-07)
(4.03464e-07 -2.28186e-08 2.02596e-07)
(4.36347e-07 -4.25155e-08 1.59796e-07)
(4.39665e-09 -1.5446e-08 5.69857e-07)
(2.86343e-08 -5.40991e-08 -1.62859e-07)
(1.26183e-07 2.29426e-07 3.10137e-08)
(-1.54661e-07 -2.68291e-07 -8.49582e-08)
(-6.03579e-08 1.86587e-07 -2.5718e-07)
(5.40475e-07 3.54606e-07 2.96262e-07)
(-2.14503e-07 -3.90697e-07 -3.66411e-07)
(-2.64126e-07 -2.63925e-07 4.30237e-07)
(7.47803e-08 -2.60165e-07 6.95892e-07)
(1.84525e-07 6.60413e-07 4.94655e-08)
(-7.49983e-08 -4.42329e-07 -7.25786e-07)
(2.28563e-07 2.90964e-07 -1.56891e-07)
(-1.72993e-07 4.16404e-07 8.39504e-07)
(-4.9597e-07 1.80628e-07 3.33954e-07)
(1.17061e-06 2.73481e-07 7.62083e-07)
(-1.34548e-06 -3.76049e-07 -2.44568e-07)
(1.36964e-07 -9.45389e-07 3.01732e-08)
(-1.15221e-07 1.84361e-08 7.18882e-08)
(1.10755e-07 -1.88275e-07 7.34507e-08)
(-4.54434e-08 -6.47538e-10 3.00197e-07)
(1.0618e-07 1.50499e-07 5.99898e-08)
(1.33218e-07 -9.43391e-09 -1.30917e-07)
(1.13247e-07 1.05457e-07 4.96326e-08)
(2.92707e-08 1.18667e-07 -3.0997e-07)
(2.65409e-07 1.32377e-07 -4.54524e-08)
(-3.64777e-08 7.58756e-09 1.74366e-08)
(-1.67211e-07 2.98055e-08 -6.38269e-07)
(1.27455e-09 2.55861e-07 2.43587e-08)
(-1.45105e-08 1.5101e-08 7.20444e-08)
(1.89256e-08 9.62345e-08 -1.12651e-07)
(1.40219e-07 -1.32235e-07 2.21391e-08)
(1.35951e-07 -7.87806e-08 1.55755e-07)
(1.80874e-07 3.66819e-07 -4.80446e-08)
(2.69565e-08 -1.17872e-07 -2.09638e-07)
(-1.27153e-07 -3.57729e-07 1.22782e-07)
(3.2831e-07 -1.77453e-08 1.10368e-08)
(-1.27199e-07 2.13356e-07 2.7715e-07)
(-1.59069e-07 3.58138e-07 -1.96846e-07)
(-7.71788e-08 -2.37753e-07 -1.56611e-07)
(-1.13622e-07 8.82238e-08 1.77264e-07)
(1.01788e-07 1.82481e-07 -1.28166e-07)
(1.61142e-07 -6.12275e-08 1.90111e-08)
(3.00846e-07 3.34317e-08 1.17082e-07)
(6.26966e-07 2.11779e-07 9.99315e-07)
(-5.05499e-07 -1.27146e-06 -9.80998e-08)
(-3.96353e-08 -5.40004e-08 -5.61676e-07)
(4.49612e-07 -2.61913e-08 -4.19123e-07)
(-3.86723e-07 1.06709e-07 1.05744e-06)
(-6.66246e-07 8.14299e-07 3.77465e-08)
(4.81944e-07 6.23859e-07 -1.06196e-08)
(6.17643e-07 -4.53393e-07 1.18949e-06)
(-2.5023e-07 7.5142e-08 5.47367e-07)
(4.14137e-07 2.35174e-07 -9.22606e-07)
(-1.46479e-07 -2.37771e-07 -8.0214e-07)
(-6.64778e-09 -3.20153e-07 7.18393e-07)
(2.25794e-09 -3.17357e-07 -1.55658e-06)
(-2.76188e-07 2.66769e-07 -7.39332e-07)
(-7.25724e-07 -9.46923e-09 7.88534e-06)
(-2.0433e-07 -6.39012e-07 -3.38783e-07)
(-6.18348e-07 -4.55233e-07 7.19199e-06)
(7.41949e-08 9.67342e-08 1.00405e-07)
(-8.21942e-08 1.91106e-06 -1.82162e-06)
(-4.42523e-07 -2.491e-07 -3.76494e-06)
(-1.76839e-06 1.63015e-06 -2.76432e-06)
(-4.2565e-07 1.31848e-07 -1.17493e-06)
(3.30608e-06 -9.16646e-07 1.00246e-06)
(4.09365e-07 1.82131e-07 1.62012e-07)
(-2.20746e-07 3.2362e-07 -1.44781e-06)
(-3.54438e-07 4.9647e-08 -7.84374e-08)
(-5.81964e-07 -3.07629e-07 -4.52025e-07)
(-8.04144e-08 -1.98361e-07 4.38141e-07)
(1.02869e-07 1.63529e-07 1.13616e-07)
(3.57953e-07 1.227e-07 -9.7357e-08)
(-2.19022e-07 1.75094e-07 -1.25648e-07)
(-3.9443e-07 3.62471e-08 7.41323e-07)
(2.93627e-07 -1.04202e-07 -7.09708e-08)
(1.80281e-07 -1.19269e-07 -1.28729e-07)
(-3.32937e-07 -1.68752e-08 -2.35641e-08)
(-3.21348e-07 -1.64723e-08 1.18839e-07)
(4.16745e-07 -5.4438e-07 -3.15698e-07)
(-1.11284e-06 -5.23889e-07 -1.5758e-07)
(-3.24409e-07 4.93139e-08 1.31352e-07)
(-5.46506e-08 -7.96339e-07 2.14103e-08)
(1.5054e-06 -7.22988e-07 -3.93387e-06)
(-1.8078e-07 -2.38897e-07 5.91422e-07)
(8.06218e-08 2.07399e-07 -8.49648e-07)
(-1.46748e-07 9.62041e-08 -1.35836e-07)
(-8.40762e-08 -4.5676e-07 -3.59865e-07)
(6.10701e-07 -4.68016e-07 -9.57844e-07)
(1.10609e-06 -8.64405e-07 -7.39425e-07)
(3.86929e-07 4.13845e-08 2.66074e-07)
(1.00905e-06 1.33688e-06 -2.07332e-07)
(-3.9145e-07 -3.87895e-07 -2.91783e-07)
(7.19773e-07 6.14085e-07 -2.41231e-06)
(5.96113e-07 2.02353e-07 -3.02186e-07)
(-8.7156e-07 -3.30906e-07 1.10072e-06)
(-1.81697e-07 -1.57221e-07 1.52848e-07)
(1.92179e-08 4.63708e-07 -1.28425e-07)
(2.3184e-07 -4.00322e-08 -6.68241e-08)
(-3.20872e-08 1.49176e-08 -3.04001e-07)
(-1.4967e-07 -5.64482e-08 5.97946e-07)
(-1.4317e-07 -2.76638e-07 -6.82508e-08)
(-1.34659e-07 -2.70004e-07 3.29002e-08)
(4.61447e-08 1.62568e-08 1.1806e-07)
(-7.94856e-08 -2.64214e-07 1.14628e-07)
(6.36196e-07 -2.21081e-08 -1.80636e-07)
(-2.90913e-07 -4.47435e-07 3.3897e-08)
(1.99257e-07 1.89863e-07 2.50929e-08)
(1.98261e-07 2.14056e-07 -1.01345e-07)
(5.29445e-07 -5.86075e-07 2.06102e-07)
(7.49226e-07 1.05477e-08 5.98025e-08)
(5.07542e-07 6.7665e-07 3.29756e-07)
(6.83092e-07 -1.55772e-08 -4.90123e-08)
(2.23718e-07 7.01465e-07 1.29813e-07)
(1.23451e-07 3.02703e-07 -6.34949e-08)
(1.02975e-07 1.3651e-07 -1.0304e-07)
(-6.64833e-07 -3.20883e-07 -2.23431e-08)
(5.24415e-07 1.49901e-06 3.82213e-07)
(6.42353e-07 6.09454e-07 -2.46485e-07)
(-9.30961e-08 9.34835e-08 4.06995e-07)
(-4.69289e-07 -4.14419e-07 8.44408e-07)
(-5.77001e-07 -5.51943e-07 6.71912e-07)
(2.55644e-07 1.26946e-07 -7.53528e-07)
(-7.77843e-07 -5.98693e-07 2.8483e-07)
(1.77478e-07 1.60829e-07 -3.92689e-07)
(-2.2403e-07 1.72061e-07 -1.17867e-06)
(1.26747e-07 -1.74147e-07 5.28733e-08)
(-8.56879e-07 5.75764e-07 -2.64972e-07)
(-5.75871e-07 2.74497e-07 1.34427e-06)
(-5.18928e-07 -1.15993e-07 -5.26769e-07)
(8.05064e-08 5.58481e-07 -3.04349e-07)
(5.55862e-08 1.19929e-07 -2.08385e-06)
(5.90328e-08 -9.00156e-08 3.76155e-07)
(-2.43062e-10 3.11685e-07 -1.02695e-06)
(4.56126e-07 -1.30899e-07 1.30689e-06)
(-4.92893e-07 -2.32108e-07 2.82991e-07)
(-3.78895e-07 1.71249e-06 -3.64e-08)
(-7.44243e-08 5.82855e-07 -4.68445e-06)
(-4.98218e-07 9.18706e-07 -2.4184e-06)
(1.42696e-06 -2.67725e-06 -1.67868e-06)
(6.54487e-07 -2.15067e-06 2.00984e-06)
(8.58977e-07 1.95121e-06 -1.22094e-06)
(-7.55379e-07 9.01041e-07 3.42298e-06)
(-5.78045e-07 -1.75168e-06 8.74996e-06)
(-1.36568e-07 2.73783e-07 6.62501e-07)
(-1.29013e-07 -1.81282e-06 7.42318e-06)
(-2.03943e-07 -1.07968e-07 -1.09129e-06)
(6.41228e-08 -1.17565e-07 2.81982e-07)
(-2.96597e-07 5.3017e-08 -9.22294e-07)
(3.88468e-07 2.2603e-07 -4.07871e-08)
(-1.30908e-07 -1.68586e-07 3.91661e-07)
(-3.65023e-07 1.52777e-07 2.76464e-07)
(2.96466e-08 1.06077e-07 -1.0854e-08)
(-2.28469e-07 -3.40261e-07 -3.74449e-07)
(8.73808e-09 -2.47536e-07 -3.12557e-07)
(-6.33145e-07 2.89259e-07 -5.48117e-08)
(4.32532e-08 2.29359e-07 4.83659e-07)
(7.01825e-08 5.51106e-07 -3.732e-07)
(6.68468e-07 3.01946e-07 1.89227e-07)
(1.1884e-07 -2.0637e-07 2.99566e-07)
(-7.39983e-08 -2.60991e-07 2.86455e-07)
(-1.79329e-07 3.59631e-07 -6.57177e-07)
(-1.76316e-07 3.58128e-07 9.37398e-08)
(3.48099e-07 -1.52099e-07 -4.90957e-08)
(-4.77792e-08 1.03281e-07 -4.53681e-06)
(-2.00625e-08 -2.08625e-07 9.53454e-08)
(1.70479e-07 3.97328e-07 -4.92316e-07)
(-7.21234e-07 1.49006e-06 -8.61175e-07)
(1.19927e-07 -7.28809e-07 2.57663e-06)
(-6.0048e-07 9.76778e-08 -8.93122e-08)
(-1.74114e-08 -4.2151e-07 -7.47983e-07)
(-8.70061e-08 -9.88696e-07 -1.09916e-06)
(4.62028e-07 3.8109e-08 -5.25449e-07)
(5.69526e-07 -1.11875e-07 -1.35705e-07)
(-9.30327e-08 4.53769e-07 4.09237e-08)
(-3.86386e-08 -3.67405e-08 8.50741e-08)
(-8.08267e-08 2.12614e-07 -1.53445e-07)
(6.10693e-08 -3.30836e-08 -1.54994e-07)
(-1.57249e-08 6.11546e-08 1.16042e-07)
(-5.42529e-09 9.599e-08 -1.31645e-07)
(6.68029e-08 -2.01521e-07 -1.26098e-07)
(-6.48274e-08 -6.79263e-08 -2.96845e-07)
(-9.99372e-09 9.13676e-08 5.01133e-08)
(4.26148e-08 -1.61314e-08 -2.01696e-07)
(-4.04248e-08 1.47319e-08 -5.55115e-08)
(-1.44434e-08 -1.22329e-08 3.11485e-07)
(-4.49782e-08 1.52882e-08 6.89522e-08)
(1.53319e-08 1.4409e-08 2.97162e-09)
(-1.16785e-07 -2.06843e-07 2.00643e-07)
(4.00873e-07 3.56983e-07 -7.44936e-08)
(-1.46448e-07 1.38599e-07 -4.79969e-07)
(-9.82814e-08 -4.60229e-08 6.96057e-07)
(5.31055e-08 -2.54562e-07 5.59619e-08)
(3.10386e-07 5.48805e-07 7.28916e-08)
(2.80989e-09 -1.51258e-07 -3.09485e-08)
(-1.9226e-07 -3.33949e-07 -7.33877e-08)
(3.87632e-08 5.67169e-07 -2.96705e-09)
(-6.65436e-08 4.20993e-08 -1.19366e-06)
(7.35842e-08 2.90328e-07 -3.59555e-07)
(-2.29276e-07 2.174e-07 5.34037e-07)
(-4.13531e-08 -2.03846e-07 -7.27857e-07)
(1.2288e-07 -1.92116e-07 1.96738e-07)
(-9.89334e-08 4.21596e-08 -4.04562e-08)
(-1.34368e-07 4.33658e-07 -5.06519e-08)
(6.81183e-07 1.03397e-06 -2.02211e-07)
(2.19016e-07 1.38459e-08 -9.64065e-07)
(3.58779e-07 8.50247e-08 8.24139e-07)
(2.24726e-07 -1.28899e-08 -5.48445e-07)
(1.00476e-08 -1.56885e-07 -8.18139e-07)
(3.20257e-08 -1.69943e-07 1.70719e-06)
(-1.62152e-07 -2.35691e-07 -8.70716e-07)
(-2.54012e-07 -6.72248e-07 2.67055e-06)
(1.37179e-07 -7.22898e-07 -3.54651e-06)
(7.8158e-07 -9.86247e-08 9.00564e-07)
(0 0 0)
(-9.6154e-08 2.79051e-07 -6.34736e-07)
(-7.87074e-07 -7.06338e-07 1.36305e-06)
(8.89128e-07 -2.29123e-06 1.74244e-05)
(2.57173e-08 1.25089e-07 8.23571e-07)
(1.27892e-07 -7.73582e-08 -1.11053e-07)
(8.58881e-08 2.9199e-07 -4.64364e-07)
(4.4072e-07 4.13194e-07 5.72379e-07)
(-7.85517e-08 -3.97266e-07 -1.58772e-07)
(3.31656e-07 4.64465e-08 7.85448e-08)
(-5.53301e-08 7.40191e-08 2.74974e-07)
(-6.23898e-07 4.62734e-08 -4.89045e-07)
(1.09094e-07 -2.04193e-07 1.67005e-07)
(8.61388e-08 -1.39103e-07 -5.38499e-08)
(-4.8486e-09 -1.04657e-07 3.63992e-07)
(4.4977e-08 1.27717e-07 -2.40391e-07)
(-3.53091e-07 4.29704e-08 2.34935e-07)
(-1.37496e-07 -5.35915e-07 -3.27291e-07)
(2.14325e-08 -1.49919e-07 3.95523e-07)
(-6.68562e-07 2.06876e-08 -3.79676e-07)
(3.1401e-07 -3.13848e-07 -4.9108e-08)
(8.38859e-10 1.85972e-07 2.2582e-07)
(-1.50513e-06 7.76205e-07 -2.59819e-07)
(9.34445e-07 8.44263e-07 -2.91585e-07)
(1.36695e-06 6.96008e-07 1.93351e-06)
(6.5853e-07 5.55896e-07 -9.51617e-07)
(6.37889e-07 2.42296e-07 6.86083e-07)
(-4.72845e-07 9.62998e-07 -8.37758e-07)
(-1.44812e-07 9.05022e-09 -2.17539e-07)
(5.06722e-08 3.85611e-08 -7.27346e-08)
(4.45066e-08 -1.08947e-07 1.85192e-07)
(-2.00464e-07 1.41873e-07 4.2809e-08)
(-2.1505e-07 -1.8696e-07 -9.37793e-08)
(3.47286e-07 1.75207e-07 -9.7923e-10)
(1.81105e-07 -1.7016e-07 -1.22418e-07)
(1.18639e-07 -1.85463e-08 -9.01389e-07)
(-1.13433e-08 8.51432e-09 1.61715e-07)
(2.6185e-08 -1.16607e-07 -2.88089e-07)
(-1.58238e-08 -2.41292e-07 -1.7012e-07)
(1.45593e-07 -4.18651e-07 -1.67486e-08)
(-4.17017e-07 -4.02849e-08 -1.71826e-07)
(-2.25479e-08 -3.36455e-07 1.60356e-07)
(1.2959e-07 3.23841e-07 1.90103e-07)
(-1.86561e-07 -4.84198e-08 3.56487e-07)
(3.2418e-07 -1.29698e-07 6.04294e-07)
(-9.18077e-08 -1.68133e-07 7.80909e-08)
(-1.54736e-08 -1.64516e-07 2.51621e-07)
(-6.68536e-09 -5.54917e-08 -1.29668e-08)
(-1.28031e-07 -1.81459e-07 -2.58093e-07)
(-8.4078e-07 6.04435e-07 1.52567e-07)
(2.43934e-07 -1.36159e-07 -1.25472e-07)
(-2.82675e-07 1.46203e-07 2.1233e-07)
(1.42849e-07 1.25555e-07 5.47551e-07)
(-2.42519e-07 1.5667e-08 6.7852e-08)
(1.21034e-07 -2.05238e-07 -2.9365e-07)
(-9.37895e-09 -2.55459e-07 5.25095e-07)
(7.92425e-08 2.8972e-08 2.30842e-09)
(4.77185e-07 -7.79703e-08 -3.43047e-07)
(1.00845e-07 7.11891e-08 -8.03269e-08)
(-5.72463e-07 -6.06677e-07 -3.43593e-07)
(-8.12515e-08 4.01043e-07 1.98547e-06)
(-1.23261e-07 -1.27074e-07 6.33167e-07)
(1.07271e-07 2.31217e-07 3.54935e-07)
(-9.0935e-08 3.6889e-07 -2.36342e-07)
(-5.54983e-08 -3.44088e-07 -1.95016e-07)
(1.97478e-08 -1.3317e-08 -4.69256e-08)
(6.54579e-08 -1.93336e-07 9.83116e-07)
(-4.18937e-07 3.00101e-07 8.38775e-07)
(3.29153e-07 -1.52258e-07 -2.02288e-06)
(3.65782e-08 2.09718e-07 5.53415e-07)
(1.38414e-08 2.39208e-08 3.57888e-06)
(0 0 0)
(-1.60375e-07 1.74976e-07 -1.47403e-06)
(-5.22473e-07 2.86713e-07 -2.28511e-06)
(7.72063e-07 -9.9279e-07 2.31211e-07)
(-1.06415e-06 -1.92938e-08 -3.93831e-06)
(9.4452e-08 4.68948e-08 6.62079e-07)
(2.29301e-08 -6.11317e-08 -1.16548e-06)
(-5.46453e-08 -1.46276e-07 4.04864e-07)
(1.06407e-07 -1.73214e-07 -4.12821e-07)
(2.19222e-07 1.86234e-07 -2.51603e-07)
(-1.73641e-07 3.53343e-07 2.33298e-07)
(-8.34668e-08 5.00708e-08 -1.87615e-07)
(1.18487e-07 1.69811e-08 -2.58637e-07)
(7.25647e-08 9.88029e-08 -2.8826e-07)
(-5.88108e-08 -4.5932e-08 8.53868e-07)
(8.04165e-08 6.73338e-08 -9.43111e-08)
(-1.77401e-07 -6.63387e-08 -4.25835e-07)
(-2.69358e-07 2.55145e-07 4.60193e-08)
(4.01143e-08 -3.16339e-07 1.83808e-08)
(1.20055e-07 -6.15323e-08 -7.85871e-08)
(8.11329e-08 -3.18091e-08 -7.51835e-07)
(-2.66064e-08 -5.22212e-08 1.61792e-07)
(-2.15746e-07 1.82208e-07 6.59378e-07)
(4.55529e-07 -1.00001e-07 -5.43484e-08)
(-2.14062e-07 -3.94283e-07 3.27004e-07)
(-8.60119e-09 -9.49433e-09 2.64494e-07)
(-1.00709e-07 -7.53307e-08 -3.23643e-07)
(7.84979e-09 8.69977e-08 -5.17528e-07)
(-3.69338e-07 2.47622e-07 -2.44579e-07)
(-5.72662e-07 1.18391e-07 2.27578e-07)
(1.20704e-07 5.48268e-08 -3.19607e-07)
(2.85431e-07 1.1719e-07 6.32089e-07)
(-6.90285e-08 3.41439e-08 5.85504e-08)
(5.37333e-08 -5.07339e-09 4.81031e-07)
(-3.84466e-08 1.76193e-07 2.84164e-07)
(5.92929e-07 -4.40316e-07 -1.20756e-06)
(-2.48655e-08 -9.91365e-08 4.92422e-07)
(-4.66893e-07 -1.07873e-07 3.94473e-08)
(2.75205e-07 2.51929e-07 -1.3243e-07)
(-1.14876e-07 -2.94595e-08 8.00388e-07)
(-3.74249e-09 6.93882e-08 -1.31987e-07)
(-7.52184e-08 1.16331e-08 -4.52927e-07)
(8.93715e-08 1.01548e-07 -1.18666e-06)
(-2.43324e-07 3.02862e-09 2.67906e-07)
(5.91617e-07 -3.47625e-07 4.52432e-07)
(1.56e-07 3.10221e-07 4.61404e-07)
(2.02567e-07 8.37552e-09 7.84574e-08)
(-1.57583e-07 -1.53418e-07 -2.0472e-06)
(2.36684e-08 -3.58504e-07 6.75605e-07)
(2.58914e-07 2.35558e-07 3.51498e-07)
(6.89307e-08 -1.85806e-07 7.14672e-07)
(1.56833e-07 4.71616e-07 -8.15617e-07)
(-2.81869e-07 -7.14556e-08 -7.20701e-09)
(-1.99633e-07 -2.89802e-07 6.08404e-07)
(7.44555e-08 2.25342e-07 4.1574e-07)
(-1.5804e-07 1.14516e-07 3.48884e-07)
(4.93021e-07 -3.48768e-08 -1.49966e-07)
(-2.06035e-08 -3.6156e-07 -3.45447e-08)
(1.07648e-07 3.768e-07 6.42897e-07)
(-3.36798e-07 -1.30845e-07 -5.99486e-07)
(-4.58996e-07 2.19101e-07 1.8481e-07)
(-3.34365e-07 -1.08018e-06 -3.2224e-07)
(-5.50727e-07 6.35756e-07 4.32299e-07)
(2.13593e-07 -3.55451e-08 -3.16921e-07)
(1.28077e-07 1.23253e-07 -2.37593e-07)
(-4.19276e-07 -3.60081e-07 -4.66081e-08)
(2.96926e-07 -1.21486e-07 -4.8221e-07)
(3.42854e-07 -8.55828e-08 1.80963e-06)
(1.53157e-07 2.71755e-07 1.26657e-07)
(4.37003e-07 -5.28337e-07 -9.21471e-07)
(-3.2211e-07 5.0157e-07 4.2517e-07)
(-1.51277e-07 -8.68371e-08 -3.4304e-07)
(8.57992e-08 1.23697e-07 -3.19372e-07)
(-3.98005e-07 1.58579e-07 -2.34066e-06)
(-7.81417e-08 -3.18649e-07 -2.36922e-06)
(-3.3428e-07 9.415e-08 1.82183e-06)
(-2.14452e-07 3.24476e-07 -1.58979e-06)
(-1.31041e-07 9.34037e-08 5.06173e-07)
(-1.55668e-07 -4.75199e-07 -9.84184e-08)
(5.16064e-07 4.75748e-07 7.33641e-07)
(-8.31486e-08 1.39364e-07 8.3833e-07)
(-1.31468e-07 1.30968e-07 -1.36244e-06)
(1.07585e-07 -2.27215e-08 -4.30816e-07)
(-1.12469e-07 -7.76221e-09 6.76052e-07)
(2.68489e-09 -6.75498e-08 9.03584e-07)
(1.9579e-07 -2.00206e-07 6.14083e-07)
(4.23366e-08 2.76292e-08 1.65256e-07)
(1.30993e-07 4.2941e-08 1.05043e-06)
(-6.72116e-08 3.62493e-07 -1.04844e-06)
(-1.91876e-08 -7.09906e-08 1.29699e-07)
(4.72534e-07 -2.88641e-07 2.54041e-07)
(-7.74915e-08 6.0088e-08 1.25561e-07)
(-3.00914e-07 3.07514e-07 5.03604e-07)
(-1.5745e-07 1.84253e-08 -4.08988e-07)
(1.52223e-07 -4.97321e-08 -1.77312e-07)
(-2.96382e-07 -1.94167e-07 -3.59799e-07)
(-6.48707e-07 -1.47176e-07 -2.58946e-08)
(-3.37493e-08 2.80908e-08 8.25793e-08)
(-7.46075e-08 1.38906e-07 -3.12786e-07)
(2.9773e-07 -1.91047e-07 1.61119e-06)
(-6.45847e-07 -3.49083e-07 -9.98519e-07)
(2.51648e-07 -1.65925e-07 -1.40161e-06)
(2.64599e-08 -1.34505e-09 3.63569e-07)
(-7.69919e-08 9.36523e-08 -3.00832e-07)
(-5.58964e-08 1.18869e-07 1.64952e-07)
(-3.57426e-07 -9.80783e-08 1.37806e-08)
(7.6129e-08 -9.17001e-08 -3.44575e-08)
(-1.52668e-07 -2.61094e-07 4.39085e-07)
(-6.2878e-09 -9.99601e-08 6.93267e-10)
(-1.01233e-07 4.96239e-08 -5.83574e-07)
(6.08557e-07 2.00459e-10 8.86149e-07)
(4.42496e-07 2.79663e-07 -1.11366e-06)
(-1.23696e-08 -4.71114e-08 7.61499e-08)
(1.65538e-07 7.00259e-08 -3.86829e-07)
(-1.87827e-07 1.4193e-08 1.45883e-07)
(1.82721e-07 -1.86451e-07 -2.5602e-07)
(3.70076e-09 -1.56179e-07 3.37967e-07)
(5.63893e-07 1.52762e-07 2.34663e-08)
(1.11923e-07 4.62489e-07 -1.67203e-07)
(2.41588e-08 -1.04812e-09 -7.60342e-08)
(3.20357e-08 -1.49245e-07 4.68214e-07)
(-2.15859e-08 7.68996e-09 -1.00786e-06)
(-3.20781e-07 1.09552e-08 1.5567e-07)
(-2.10508e-08 4.71821e-08 -8.04801e-07)
(-3.29984e-07 6.94374e-08 -2.50942e-07)
(-2.15055e-07 -1.54826e-07 -8.10657e-07)
(4.0258e-07 2.15049e-07 -6.86597e-07)
(-3.1312e-08 1.73151e-07 -2.11694e-07)
(-2.22266e-08 -1.59722e-07 -2.45549e-07)
(4.61193e-08 -1.01432e-07 -1.08283e-07)
(-2.9837e-07 -4.72044e-07 7.90898e-07)
(4.11941e-08 -3.83684e-07 -1.3973e-07)
(-5.22653e-07 -2.48278e-08 1.86453e-07)
(2.61581e-07 -3.73979e-08 1.93772e-07)
(4.07738e-08 -5.58671e-07 -2.32075e-07)
(-1.2184e-07 1.35423e-06 4.46682e-07)
(1.89395e-07 -3.79296e-07 -2.44639e-07)
(2.2006e-07 2.50447e-07 -7.82784e-07)
(-2.82989e-07 -1.2571e-07 1.99891e-07)
(9.18392e-08 2.65957e-07 2.56644e-07)
(2.74401e-07 -3.07021e-07 2.83311e-07)
(-2.6915e-08 1.2883e-07 -1.74846e-07)
(-6.69573e-07 5.57761e-07 6.59205e-08)
(2.98233e-07 3.18461e-07 2.64998e-08)
(-2.54194e-07 -2.42951e-07 7.17623e-07)
(2.55095e-07 -2.97223e-07 -1.95235e-07)
(1.20901e-07 3.02247e-09 1.09911e-06)
(-6.39105e-07 -1.39271e-07 8.75757e-08)
(1.12242e-07 -1.5166e-07 1.17604e-06)
(-8.74189e-08 5.22277e-07 4.81429e-07)
(4.26037e-08 -1.378e-07 4.99742e-09)
(-5.44451e-08 8.82372e-08 -5.20814e-07)
(2.51025e-07 -4.18954e-07 3.72414e-07)
(1.51094e-07 4.93582e-07 1.14506e-06)
(-5.84637e-07 3.5233e-07 -1.02876e-06)
(9.93022e-08 4.85946e-07 -6.59096e-08)
(2.46212e-07 -3.96963e-07 5.22796e-07)
(-3.91449e-07 -7.18592e-07 2.67519e-06)
(6.7256e-08 6.10251e-07 -1.76762e-06)
(2.55878e-07 -1.54002e-07 1.89087e-07)
(-3.36005e-07 7.26811e-07 7.91144e-08)
(-1.39721e-07 8.582e-09 -4.82368e-07)
(-3.27683e-08 -1.59877e-07 -1.95869e-07)
(-4.42038e-07 -1.17652e-07 2.53868e-07)
(-3.13304e-07 -1.37265e-07 -1.55488e-07)
(-3.39326e-07 -5.83684e-07 6.35969e-08)
(1.167e-07 3.62825e-07 -4.51616e-07)
(-1.24201e-07 2.84251e-08 -2.79545e-07)
(4.31679e-07 4.08203e-08 4.40821e-07)
(-4.03144e-07 1.82436e-07 7.09075e-07)
(1.51678e-08 2.29888e-07 -2.59598e-07)
(1.47615e-07 3.60555e-08 -5.23323e-07)
(-1.34949e-08 5.95889e-08 -6.67529e-07)
(4.95149e-07 -2.04739e-07 1.9184e-08)
(1.40042e-07 4.07505e-08 -2.70291e-07)
(2.76193e-07 1.49898e-07 1.9684e-07)
(-1.79393e-07 -5.75755e-07 -3.0532e-07)
(-8.20692e-07 1.38931e-07 -3.44604e-07)
(1.64206e-08 5.52403e-08 -1.24954e-06)
(-8.00761e-08 -7.72428e-08 -8.00333e-07)
(-1.63407e-07 9.58883e-08 2.28027e-07)
(-9.36317e-08 -2.07425e-07 -1.68827e-07)
(1.05211e-07 -4.89086e-08 -1.45998e-07)
(7.58856e-08 2.32813e-08 -4.20538e-07)
(-9.91747e-08 -4.85253e-07 -1.5244e-07)
(9.80297e-08 -2.84398e-08 8.01594e-07)
(2.29888e-07 1.59626e-08 3.21583e-07)
(1.09604e-07 6.42123e-08 -4.46434e-07)
(1.12993e-07 -1.7832e-07 -1.09718e-06)
(1.17966e-07 2.07524e-07 4.24041e-07)
(2.45008e-08 1.33677e-07 2.31699e-07)
(1.99977e-07 1.55837e-07 2.38552e-07)
(-1.03798e-07 5.43715e-08 3.83202e-07)
(-1.9901e-07 -3.23683e-08 5.67391e-07)
(-2.92452e-09 4.79766e-07 4.94291e-06)
(-2.16394e-08 4.39239e-07 4.8342e-07)
(1.45193e-07 2.14942e-07 -4.42605e-07)
(-7.22069e-08 1.32872e-08 -6.25956e-07)
(-1.45743e-07 1.02612e-07 5.37776e-07)
(6.42526e-08 -2.76878e-08 1.45864e-07)
(1.89158e-07 -5.75567e-08 5.34629e-07)
(-1.62901e-07 6.12094e-08 1.49721e-07)
(-1.31611e-07 -6.0397e-08 2.40289e-07)
(-1.20893e-07 -2.30748e-08 -4.5575e-07)
(-3.09446e-08 -8.80785e-08 3.55053e-07)
(-7.2392e-08 -6.78897e-08 2.51308e-08)
(-2.38613e-07 -1.7735e-07 -1.8028e-07)
(-1.30598e-09 -3.55754e-07 1.44025e-07)
(9.58638e-07 1.73397e-07 -1.36559e-07)
(-1.17129e-07 6.40818e-07 2.3245e-07)
(8.58233e-08 -1.01721e-07 -8.44636e-07)
(2.14334e-08 2.37575e-07 7.53408e-07)
(-1.50814e-09 -2.69556e-07 -2.42015e-08)
(-2.40024e-07 1.98346e-07 -1.52361e-07)
(2.15117e-08 2.3372e-07 -1.61927e-07)
(-1.27893e-08 5.48206e-07 -4.94483e-07)
(5.35293e-07 -1.18288e-07 3.83263e-07)
(-1.2477e-07 1.40189e-09 -1.04002e-07)
(-7.24865e-08 -1.33677e-07 2.12198e-07)
(-3.31852e-07 3.14889e-07 3.67852e-07)
(-3.18165e-08 -9.63637e-08 -3.04103e-07)
(3.69661e-07 -5.19426e-07 5.60477e-08)
(-6.42271e-07 1.20122e-06 6.74777e-07)
(-4.64867e-08 -8.00621e-08 4.35063e-08)
(-1.15169e-07 -7.31773e-08 4.34224e-07)
(1.20351e-07 3.04455e-08 -2.42317e-07)
(1.04743e-06 -3.78256e-07 -5.65395e-07)
(-3.93321e-07 -1.96536e-06 4.25235e-06)
(-5.43352e-07 6.85439e-07 4.44426e-07)
(5.51312e-07 -4.49739e-07 1.926e-06)
(-3.16964e-09 -2.29926e-07 9.14016e-07)
(-3.38659e-07 -2.43529e-08 -2.34194e-07)
(5.7891e-07 -9.10242e-08 -5.52877e-07)
(7.64919e-07 -1.28577e-07 2.32062e-07)
(1.11512e-07 -2.62972e-07 4.18272e-07)
(-1.27749e-07 -1.05436e-07 2.79811e-07)
(-4.29822e-07 3.60314e-07 -1.28565e-07)
(-1.38009e-07 2.46861e-07 3.99968e-07)
(-4.7652e-07 2.05631e-07 -3.11576e-07)
(-9.58137e-08 -3.24364e-07 -1.66717e-07)
(4.3138e-08 6.53057e-09 1.04586e-07)
(8.22281e-08 5.77379e-08 -5.73397e-08)
(-3.83804e-08 9.71229e-08 4.19826e-08)
(-1.20051e-07 -1.9817e-07 1.86318e-07)
(2.47684e-07 -3.56601e-08 -1.4948e-07)
(-2.24134e-07 -2.29179e-09 2.58137e-08)
(-2.95882e-07 1.66158e-07 2.4948e-07)
(2.9597e-07 1.22206e-07 3.80139e-07)
(-9.51998e-07 -6.29136e-08 8.88254e-07)
(5.52096e-07 1.99455e-07 -2.24534e-07)
(-3.5216e-07 -1.63784e-07 -5.2856e-07)
(1.18635e-07 -1.10459e-07 -1.43169e-06)
(-1.10059e-07 7.17601e-08 1.18709e-06)
(3.29216e-07 5.13297e-08 1.78555e-07)
(1.53569e-07 1.46517e-07 -1.00321e-06)
(1.43248e-07 8.592e-08 2.07342e-07)
(4.72901e-08 4.98733e-08 -2.06336e-06)
(2.82085e-09 -1.46893e-07 1.11713e-06)
(-3.27022e-07 1.97269e-07 -6.88776e-08)
(-1.83312e-07 3.12889e-07 4.26997e-07)
(-3.42573e-07 -2.12255e-07 -3.0042e-07)
(3.28761e-07 4.05559e-07 -4.99399e-07)
(-3.30667e-07 4.40463e-08 -1.76594e-07)
(-4.08039e-07 -1.47556e-07 2.60984e-06)
(-4.76209e-07 -1.83729e-07 2.97983e-06)
(-1.13258e-07 1.24597e-07 -3.05209e-07)
(-1.45211e-07 2.56831e-07 -1.39123e-06)
(2.6952e-07 -3.65899e-07 -1.10372e-07)
(1.96117e-07 9.72225e-08 1.81755e-06)
(2.70015e-07 -2.46397e-07 7.92859e-06)
(-3.40619e-07 4.73659e-08 5.17275e-06)
(1.29563e-07 -8.44948e-08 -8.77302e-08)
(-2.90803e-07 -1.31438e-07 3.26641e-06)
(-8.03012e-08 8.17464e-07 6.06712e-07)
(4.72139e-07 -4.06903e-07 -4.2663e-08)
(1.93755e-07 -1.05287e-07 3.54769e-07)
(1.00889e-07 8.43973e-08 -4.62833e-07)
(1.34826e-07 2.49976e-07 -8.22517e-07)
(1.07393e-07 -1.21181e-07 -1.19688e-06)
(-9.34298e-09 -1.91546e-07 8.03645e-07)
(-3.36557e-08 9.43782e-08 -2.78677e-07)
(-8.96269e-08 1.74366e-09 3.38491e-07)
(-5.29009e-09 -3.11444e-08 1.33299e-07)
(1.25702e-07 -1.45444e-07 -1.16034e-07)
(2.1809e-07 9.68074e-08 -2.75428e-07)
(-1.40901e-07 -5.18919e-08 3.44647e-07)
(-1.75762e-07 7.17507e-08 2.35698e-07)
(-8.60663e-08 -6.42638e-08 -2.78613e-07)
(-2.01568e-08 3.018e-08 3.83796e-08)
(1.23352e-07 3.78928e-07 2.40037e-08)
(4.88119e-07 1.02546e-07 -1.62943e-07)
(-2.13253e-07 -3.28518e-07 3.43401e-07)
(1.45102e-07 -2.45006e-07 -2.80675e-07)
(1.19786e-07 3.2493e-07 1.84386e-07)
(-2.46511e-07 -7.29123e-07 3.80015e-07)
(5.25367e-07 6.39029e-07 -6.46999e-08)
(-3.38413e-07 1.11399e-07 8.4737e-07)
(-1.57396e-07 1.27269e-07 -2.04727e-07)
(6.3683e-08 -2.2592e-08 1.10914e-06)
(-5.83476e-08 -7.58325e-07 -1.28292e-06)
(1.40145e-06 1.70581e-07 7.28098e-07)
(-1.48407e-07 -7.24698e-07 1.47047e-06)
(3.1688e-07 3.36191e-07 1.0464e-06)
(-1.28338e-06 9.93174e-08 -2.62961e-07)
(2.19802e-07 7.86673e-08 2.11531e-06)
(9.50621e-08 -7.89048e-07 -8.25689e-07)
(-6.54107e-07 -3.89767e-08 -1.96881e-06)
(-1.65991e-06 2.04786e-07 -1.47325e-06)
(4.22997e-07 -3.67526e-07 4.82771e-07)
(3.31901e-07 -5.57074e-07 -1.60788e-07)
(-3.5826e-07 1.39303e-07 4.89076e-07)
(2.72508e-09 4.23095e-08 3.45242e-07)
(1.05143e-07 -1.60783e-07 2.63476e-07)
(-2.54354e-07 -5.84297e-08 -3.42554e-07)
(2.42663e-07 -3.00952e-07 -7.94574e-08)
(3.07003e-07 -9.39657e-08 6.42578e-08)
(1.93909e-07 1.43009e-07 -3.9133e-07)
(4.74229e-07 1.54166e-07 -1.70086e-07)
(-2.04456e-07 -1.37535e-08 -1.39891e-07)
(-2.10404e-07 -1.16971e-07 -7.44071e-07)
(-3.69204e-08 1.92954e-08 3.13471e-07)
(6.08962e-07 5.2728e-07 -2.81584e-07)
(-3.08487e-08 -1.00583e-07 -2.11896e-08)
(1.1982e-07 1.58708e-07 2.58881e-07)
(-5.07429e-07 -1.8825e-07 -3.63999e-07)
(-3.9715e-07 3.88649e-08 -3.28679e-08)
(6.45873e-08 -5.36739e-08 3.47751e-07)
(-1.25741e-07 -5.67743e-07 3.16129e-07)
(-3.44246e-07 -2.15216e-07 -4.46579e-07)
(2.57719e-07 3.08277e-07 -1.28589e-07)
(-3.08011e-07 -2.77231e-07 -1.21669e-06)
(1.81005e-07 -6.6157e-08 1.09216e-06)
(2.03298e-07 4.87001e-07 -1.47631e-07)
(1.92914e-07 1.39974e-07 7.12833e-07)
(-4.1758e-07 -2.87691e-07 -7.01389e-09)
(-4.49843e-07 7.79946e-08 -1.26232e-07)
(-1.0166e-07 2.29037e-07 -4.71094e-07)
(-3.49939e-07 -3.46637e-07 -4.46632e-07)
(1.39646e-06 -1.48284e-07 -1.31738e-06)
(1.99048e-07 -3.48309e-07 -1.34955e-06)
(2.01899e-07 2.23266e-08 -5.66592e-07)
(-1.98292e-07 2.6945e-07 8.74989e-07)
(-3.1659e-07 -5.80846e-08 -9.21416e-07)
(2.99668e-07 -2.92686e-08 1.98119e-06)
(-1.09886e-07 1.70956e-07 1.82768e-06)
(-4.25998e-08 -7.24532e-08 -2.11371e-06)
(3.02539e-07 -1.89198e-07 -8.48185e-07)
(2.30911e-07 -6.51631e-07 -2.23661e-07)
(2.09991e-07 -2.10798e-07 -8.63513e-07)
(-3.60534e-07 1.18389e-07 -4.32154e-07)
(3.41885e-07 2.3669e-07 -2.45698e-07)
(1.75787e-07 2.60935e-07 7.87882e-07)
(-1.30299e-08 2.96026e-08 -2.27688e-08)
(1.49689e-08 5.12893e-07 -6.32142e-07)
(-8.91244e-08 -3.4766e-08 1.48759e-08)
(-5.69048e-09 -3.33935e-07 -1.62972e-08)
(-3.7691e-08 -8.94998e-08 2.47616e-08)
(1.78062e-07 -4.47114e-07 -1.25946e-07)
(2.00272e-08 4.90014e-08 -3.39172e-08)
(4.14516e-08 -6.61556e-08 7.39946e-08)
(-3.67853e-08 4.85773e-08 1.19067e-07)
(2.90299e-07 3.51008e-07 6.72284e-08)
(-2.46349e-07 -3.08744e-07 -2.05908e-08)
(-1.27114e-07 -2.93653e-07 1.27055e-07)
(-1.20752e-07 5.77001e-08 -3.03738e-07)
(-7.28504e-08 8.40497e-08 -6.04948e-08)
(-2.03812e-07 -1.58242e-08 1.04625e-07)
(1.46668e-08 -1.42665e-07 1.12766e-07)
(5.00335e-07 3.31376e-07 2.92975e-07)
(3.57456e-08 -6.57432e-09 9.24638e-07)
(-2.09961e-08 4.29163e-07 -3.33889e-07)
(-6.22468e-07 -8.02867e-07 -9.97535e-07)
(4.63145e-07 2.94765e-07 -2.8386e-07)
(6.39391e-07 2.86169e-07 7.83846e-07)
(2.02869e-08 1.60903e-07 1.21627e-07)
(1.57601e-07 1.86776e-07 -9.65356e-07)
(-5.83444e-07 -1.14334e-06 7.1145e-07)
(4.57863e-09 3.77291e-08 -2.49875e-07)
(8.29264e-07 9.50329e-08 -2.52997e-06)
(-5.55873e-07 1.42658e-07 3.82656e-08)
(-2.18268e-07 2.67846e-08 -3.9126e-07)
(3.16488e-07 -3.69612e-08 2.09737e-07)
(5.09875e-08 -1.78432e-07 -1.18275e-07)
(2.08637e-08 3.53742e-07 9.51314e-07)
(1.75116e-07 1.09256e-08 -2.22632e-07)
(6.83737e-08 6.37485e-09 -3.80079e-07)
(-1.22553e-06 -6.99404e-07 5.66183e-08)
(7.94006e-08 -5.38044e-07 -5.4697e-08)
(2.45345e-07 2.80232e-07 1.11188e-07)
(-4.26259e-07 -1.1631e-07 4.19143e-07)
(-2.09978e-07 -2.52046e-07 3.31884e-07)
(-1.49552e-07 -4.30679e-08 3.0648e-07)
(-1.20621e-07 2.5971e-07 2.99375e-07)
(-9.24905e-08 3.31666e-07 8.89382e-07)
(-8.25849e-09 1.09771e-07 2.40399e-08)
(-2.22533e-07 -1.77995e-07 2.62903e-07)
(1.29199e-07 2.08132e-07 4.92504e-07)
(7.0792e-07 -3.4849e-07 -8.7284e-08)
(7.74034e-08 1.13172e-07 3.69109e-08)
(3.35796e-07 -1.47041e-07 -6.24516e-07)
(8.52148e-08 -5.98425e-08 -1.31572e-06)
(7.30536e-08 -2.24851e-07 5.11308e-07)
(-4.91464e-08 3.64269e-07 1.68008e-06)
(-7.76367e-09 2.33519e-07 9.50006e-09)
(1.38219e-07 -6.38561e-08 -1.41325e-06)
(-7.04263e-08 1.80096e-07 -1.2817e-06)
(-3.68186e-07 8.33589e-08 -9.50228e-08)
(3.10378e-07 -2.49074e-07 -3.31156e-07)
(1.82798e-08 -2.5559e-07 -2.31283e-07)
(-7.12863e-07 -7.69929e-07 -5.95171e-07)
(-9.28133e-08 6.94341e-08 2.5965e-07)
(-5.49938e-08 5.98775e-07 -9.23723e-07)
(1.30934e-07 1.62055e-08 6.42768e-07)
(-3.11408e-07 -1.71554e-07 8.29583e-07)
(5.90251e-07 2.41327e-07 -4.58125e-07)
(4.74443e-08 -4.4605e-09 -2.79715e-07)
(-2.41924e-07 -5.93395e-09 -1.97267e-07)
(3.8525e-07 -1.88122e-07 1.35133e-06)
(2.52934e-08 2.0594e-08 5.73717e-07)
(1.04111e-07 -1.90829e-07 -6.4697e-07)
(5.94858e-08 -8.61813e-09 -4.7566e-07)
(-1.15132e-07 1.23259e-07 -7.71831e-07)
(-3.52858e-08 -1.07039e-07 -1.15463e-06)
(4.19245e-07 -2.34502e-07 -3.68862e-07)
(6.64324e-08 -8.04844e-08 -6.14086e-08)
(2.10086e-07 -1.12454e-07 2.17404e-07)
(-3.38426e-08 -4.22056e-08 3.38487e-07)
(1.58967e-07 -2.63711e-09 -1.72827e-07)
(9.98461e-08 -1.95001e-07 6.80476e-07)
(2.06427e-08 -2.8975e-08 4.69735e-07)
(2.34625e-07 9.21652e-08 -8.34886e-07)
(2.28738e-07 4.31557e-07 4.90343e-08)
(6.07635e-08 -1.80905e-07 1.87034e-08)
(2.35349e-07 1.18715e-07 2.4914e-08)
(-4.8392e-07 -3.44553e-07 3.55291e-08)
(-8.83201e-08 2.90237e-07 -1.43855e-07)
(1.88659e-07 -3.53061e-08 -1.32106e-07)
(2.65551e-07 2.31061e-07 -2.11787e-09)
(-1.70553e-07 -3.15353e-07 1.12649e-07)
(1.70931e-08 1.29099e-07 8.32e-08)
(1.3309e-07 1.791e-07 -1.51327e-07)
(2.306e-07 -5.88007e-08 3.87076e-08)
(-5.69891e-08 -1.85704e-07 -8.94216e-08)
(-8.59506e-08 -4.67545e-07 2.97339e-08)
(-2.24365e-07 1.17597e-07 -2.36052e-07)
(1.6245e-07 5.33442e-07 -6.05785e-07)
(2.64805e-07 2.90642e-08 3.81032e-07)
(-1.37622e-07 -7.56345e-08 7.75013e-07)
(1.59349e-08 1.54055e-07 -2.51668e-07)
(-5.29834e-08 -2.96631e-07 6.08249e-09)
(1.37781e-07 1.34587e-07 -2.28097e-07)
(-2.75906e-07 -1.57813e-07 2.82629e-08)
(3.14613e-07 6.11966e-08 -4.88079e-07)