/*--------------------------------*- C++ -*----------------------------------*\
  =========                 |
  \\      /  F ield         | OpenFOAM: The Open Source CFD Toolbox
   \\    /   O peration     | Website:  https://openfoam.org
    \\  /    A nd           | Version:  8
     \\/     M anipulation  |
\*---------------------------------------------------------------------------*/
FoamFile
{
    version     2.0;
    format      ascii;
    class       vectorField;
    location    "0/lagrangian/kinematicCloud";
    object      U;
}
// * * * * * * * * * * * * * * * * * * * * * * * * * * * * * * * * * * * * * //


1578
(
(-6.54596e-06 0.000608939 5.93334e-05)
(-0.000301323 0.000776315 0.000466028)
(-0.000342049 -0.00126508 1.80528e-05)
(0.000111986 -0.00102843 3.01786e-05)
(0.000105692 -0.00042035 -0.000986177)
(-0.00047399 -0.000865986 0.00014985)
(0.000203789 -2.48973e-05 0.00019519)
(0.000460212 0.000322199 -0.00916529)
(-0.000244467 -6.8562e-05 -0.000241869)
(-6.79259e-05 4.17273e-05 3.16636e-05)
(0.000117736 -0.00161303 -9.97533e-05)
(-9.98579e-05 -5.12491e-05 0.000526679)
(0.000736242 -0.00156763 0.000583979)
(-0.000194475 0.000138319 0.00821054)
(-0.000169419 -0.000449284 -4.09918e-06)
(-3.66275e-05 -0.00046127 -1.61851e-05)
(-8.36522e-05 -0.000542437 -6.46597e-05)
(-0.000206932 -0.000892418 -5.26929e-05)
(0.000228525 -0.000803959 3.53324e-05)
(2.33565e-05 6.09165e-05 0.000130518)
(0.000175076 -0.000512848 -2.55707e-05)
(-0.000154747 -0.000107237 4.34984e-05)
(3.72266e-06 -0.000666511 5.7787e-05)
(8.57342e-05 -0.000471769 -1.37547e-05)
(0.000120005 -0.000248395 -2.6122e-05)
(0.000145627 -1.45359e-05 2.23566e-05)
(0.000837709 -0.000643806 0.000341169)
(0.000664568 -0.000653562 -0.000520006)
(0.000827369 -0.000600985 0.000535073)
(0.000574991 -7.1589e-05 4.45696e-05)
(0.000440107 -0.000176019 -6.31498e-05)
(0.000654545 -0.00012772 -1.25418e-05)
(0.000438748 -0.000235057 7.79845e-05)
(0.000640758 -0.000531789 0.000182809)
(0.000648418 -0.000626052 -4.09398e-05)
(0.000780519 -0.000585112 -6.18617e-05)
(0.000503204 -0.00100379 0.000785285)
(0.00075216 -0.000670131 -0.000302791)
(0.000764094 -0.000341783 0.000695661)
(0.000709163 -0.000429907 -8.14017e-05)
(0.000824577 -0.000506794 0.000841869)
(0.000731077 -0.0005102 -0.000110029)
(0.000685364 -0.000454136 0.000299049)
(0.000652649 -0.000379405 0.000867315)
(0.000688852 -0.000414688 -1.41149e-05)
(0.000661196 -0.000399308 -0.000325031)
(0.000737438 -0.000486327 -7.09735e-05)
(0.000667748 -0.000532447 -2.0997e-05)
(0.000622917 -0.000552721 8.45968e-06)
(0.000674447 -0.000578185 -1.70726e-05)
(0.000584715 -0.000571609 1.62619e-05)
(0.000709595 -0.000619221 -5.28725e-05)
(0.000578332 -0.000478149 1.47523e-05)
(0.00102213 -0.000469273 0.000418091)
(0.000859564 -0.000201268 0.000359538)
(-8.35136e-05 -0.000402993 0.00152358)
(8.7876e-05 -0.000296601 5.24331e-05)
(0.000788737 -0.000547203 -0.000154027)
(-0.000538192 -0.000357264 -0.000353953)
(-0.000596895 -0.000498682 -0.000195736)
(-0.000857959 -0.000892836 -0.000379375)
(-0.000333336 -0.000378547 -5.50445e-05)
(-7.41274e-06 -0.00103517 -0.000114589)
(-7.88622e-05 -0.00143417 -0.000272602)
(0.000144628 -0.00115021 1.17948e-05)
(0.000196532 -0.000750543 0.000270701)
(0.000347059 -0.00182996 0.000204865)
(0.0004794 -0.00210763 0.000623309)
(0.00029471 -0.00265112 0.000115534)
(0.000710664 -0.00319101 -3.35282e-05)
(4.73134e-05 -0.00232835 -2.3968e-05)
(-0.000736788 -0.00110164 0.000174736)
(-0.0031011 -0.00202877 -1.38234e-05)
(-0.000627568 0.0017536 6.30714e-05)
(-0.00114889 0.000816143 -8.04515e-05)
(0.000636395 0.000373053 -0.000614426)
(0.000140021 -0.00127084 0.000286208)
(0.000468199 -0.000792827 0.00116252)
(-0.000210864 0.00106001 1.03467e-05)
(0.00119986 -0.000813755 -0.00137524)
(0.00048763 -0.000562927 -0.00784832)
(-0.000241004 -0.000193738 -0.000129207)
(0.000270455 -0.000507365 -0.000134512)
(0.000236416 0.00014608 1.02825e-05)
(6.5013e-05 1.53261e-05 -0.000101861)
(8.49019e-06 -0.000136282 -4.8467e-05)
(5.10678e-05 2.55081e-05 6.63291e-05)
(0.000145005 -0.000124514 -1.21199e-05)
(0.000115481 -0.000450586 0.000136543)
(0.000103614 -0.000405363 -1.9794e-05)
(0.000105266 -0.000545047 2.86078e-05)
(1.47148e-05 -0.000539504 2.92082e-05)
(2.27019e-05 -0.000686757 3.15712e-05)
(-9.98592e-05 -0.000627663 5.3411e-05)
(6.71208e-05 -0.000692191 2.99441e-05)
(0.000147078 -0.000484081 -4.06093e-05)
(0.000146884 -0.000598759 -6.54358e-05)
(-0.000518816 -0.000174622 -7.58129e-05)
(0.000364649 -0.000340595 -0.00205021)
(-8.05412e-06 -0.000266976 -9.17685e-05)
(0.00103827 -0.00152795 4.72773e-05)
(0.000918774 -0.00103734 0.000709796)
(-0.000374896 -0.000327554 -0.000239463)
(0.000749532 -0.000959779 8.0598e-05)
(0.000702235 -0.000415998 0.000184512)
(-0.000265919 -0.000918107 -0.00175188)
(0.000484609 -0.000439151 0.000186064)
(0.000515794 -0.000385069 0.000568703)
(0.000665465 -6.21773e-05 1.34386e-05)
(0.00031126 -0.000274926 -0.000115896)
(0.000609261 -0.00013249 0.00010708)
(0.000785623 -5.09934e-05 0.00108668)
(0.00092142 -0.000487834 0.00021571)
(0.000508829 7.39372e-05 8.72662e-05)
(0.000481911 -0.000322953 4.4447e-06)
(0.000572441 -0.00046508 -5.86545e-05)
(0.000615549 -0.000528535 7.32398e-05)
(0.000641855 -0.000373502 -1.84066e-05)
(0.000708192 -0.000339256 6.90625e-05)
(0.000659658 -0.000298276 -1.1413e-05)
(0.000787119 -0.000330882 1.52477e-05)
(0.00073773 -0.000359675 -0.000319532)
(0.00070765 -0.000483153 -3.38396e-05)
(0.000769478 -0.000436781 -3.76279e-05)
(0.000682642 -0.000515382 -5.42881e-06)
(0.00070102 -0.000506313 4.58602e-05)
(0.000779033 -0.0006206 -5.50002e-05)
(0.000660093 -0.000570276 -0.000262078)
(0.00084909 -0.000662629 4.23733e-05)
(0.00089223 -0.000298948 4.41776e-05)
(0.000912942 -0.000302728 -3.07988e-05)
(0.000550424 -0.000599705 7.90765e-05)
(0.000383418 -0.000177986 0.000793472)
(0.000742767 -0.000637092 5.76521e-05)
(0.000445913 -0.00025542 -0.000287309)
(0.000500743 -0.000215432 0.00015533)
(0.000686752 -0.000433891 -0.000109404)
(0.00105487 -0.000906577 0.00011531)
(0.000582945 -0.000860582 -0.000416478)
(0.000568223 -0.0010311 0.000127628)
(0.000311451 -0.00140284 -3.7116e-06)
(-0.000411876 -0.00154041 -0.000847631)
(-4.25863e-05 -0.00210523 -0.000861179)
(0.000500745 -0.00172339 -0.00125609)
(0.000154368 -0.00244721 -0.000512123)
(-0.00057861 -0.00323265 -9.9002e-05)
(-6.72174e-06 -0.00250389 0.000362042)
(7.71453e-05 -0.00136949 -0.000155495)
(-0.00148124 -0.00254332 -0.000815439)
(5.6796e-05 0.002143 0.00200945)
(1.4484e-05 0.000940701 5.5825e-05)
(0.00115558 0.000790857 -0.000640933)
(0.00197853 -0.00256097 -0.00178567)
(0.000362848 -0.00173335 0.00052007)
(0.000296485 -0.00177784 9.63384e-05)
(0.0171601 -0.00444455 -0.00144282)
(-0.000295409 -3.31027e-05 -5.72426e-05)
(0.000696737 -0.00107074 -4.31231e-05)
(-0.000227743 -0.000907726 -7.53304e-05)
(0.000322009 -0.000465225 1.32075e-05)
(-8.59354e-07 -0.00142482 8.50384e-05)
(0.00010359 -0.000285866 7.56145e-05)
(0.000120171 0.000136089 -4.451e-05)
(-0.000205589 -0.000257783 2.57301e-05)
(0.000391544 -0.000256631 1.11522e-05)
(-3.0376e-05 -0.000127762 -1.80982e-05)
(0.000377336 -0.0004586 2.34786e-05)
(7.58981e-05 -0.000156866 -1.05032e-05)
(0.000150658 -0.000700418 -3.53338e-07)
(0.000130292 -0.000676073 5.88588e-05)
(0.000150091 -0.000807612 -1.59111e-05)
(0.000153385 -0.000799797 5.58004e-05)
(0.000190433 -0.000879022 0.000148315)
(0.000146984 -0.000615656 -0.000118162)
(-0.000224354 -0.000647349 0.000204472)
(-0.000249394 -0.000195437 -4.45035e-05)
(-0.000355415 -0.000358808 -0.000129504)
(-0.000197142 -0.000459121 0.000637464)
(-0.00084555 -0.000160663 0.00151222)
(-0.000470603 -0.000901317 0.000289766)
(-0.000276833 -0.000722428 0.00205629)
(-0.000878034 -0.000560199 -0.000225514)
(0.000523458 -0.000858619 -0.000429196)
(-0.00014357 -0.000420895 -0.000177236)
(0.00123927 -0.00102293 4.08617e-05)
(0.000568955 -0.00058913 -0.000218168)
(0.000421754 -0.000229421 0.000149466)
(0.000561612 -0.000358853 6.21449e-05)
(0.000655247 -0.000325362 -9.21498e-05)
(0.000503335 -0.000343921 4.77015e-05)
(0.000468911 -2.68797e-05 -2.05945e-05)
(0.000641328 -0.000117528 3.92868e-08)
(0.000407652 -0.0001611 0.000148979)
(0.000524057 -0.000311069 7.78084e-06)
(-0.000429407 -0.000403663 1.9597e-06)
(-0.000532895 -0.000663447 -1.22291e-05)
(-1.26735e-05 -0.000694734 -1.53524e-05)
(0.00073109 -0.000309339 3.43903e-05)
(-0.000178299 -0.000721809 -9.10963e-05)
(0.000236524 -0.000304394 0.0066255)
(0.000580495 -0.000586476 1.47069e-05)
(0.000955592 -0.00031079 -7.68128e-05)
(0.000756975 -0.000324683 -7.10292e-05)
(0.00044613 -0.000355092 -0.000266358)
(0.000256505 -0.000491882 -0.000451797)
(0.000812015 -0.000621452 -6.21676e-05)
(0.0006518 -0.000628714 -7.53159e-05)
(0.000851704 -0.000565617 1.3359e-05)
(0.000842759 -0.000513522 -9.61223e-05)
(0.000799308 -0.000602115 6.54765e-05)
(0.00090362 -0.000245172 1.01776e-05)
(0.000225784 7.56533e-05 -0.000141092)
(0.00103048 -0.000573231 -4.90259e-05)
(0.00103144 -0.000833346 -2.58414e-06)
(0.000154898 -0.000190512 -0.00160908)
(0.000539518 -0.00048176 2.5228e-05)
(0.00100531 -0.000682795 -0.000196157)
(0.000883337 -0.000623758 -0.000169324)
(0.000336255 -0.000922026 0.000129419)
(0.00149311 -0.00134904 0.000586712)
(0.000131808 -0.0013608 0.000295842)
(0.00081346 -0.00209501 0.000437836)
(-9.40993e-06 -0.00161443 -0.000675372)
(-0.000713273 -0.0023458 -0.000124978)
(-0.0004296 -0.00142462 -6.12194e-05)
(-0.0018536 0.0005028 -0.000860282)
(0.0110073 0.00408323 0.00172568)
(0.00107586 -0.00231581 0.00129582)
(0.00267623 -0.00271186 -0.00116104)
(0.000395018 -0.00194818 2.7175e-05)
(0.000245069 -0.000728913 0.000221571)
(-0.000285051 -0.00144953 -1.33551e-05)
(-0.000134022 -0.00135886 -8.11399e-05)
(0.000476231 -6.33822e-05 -0.000317395)
(0.000435763 -0.000365067 -0.000622953)
(0.000501844 -0.000226301 4.95653e-05)
(5.67904e-06 -0.000410825 0.00131495)
(6.55106e-05 -0.00103742 -3.15502e-05)
(0.000384521 -0.00130087 -0.000567945)
(0.000195921 -0.00123529 -4.38538e-05)
(0.000166539 -0.000911165 -0.000108622)
(0.000138833 -0.00101824 4.93505e-05)
(0.000253082 -0.00116581 4.68747e-05)
(-0.00516526 -0.00272644 4.96527e-05)
(-0.00445382 -0.00186674 -0.000238783)
(-0.000245664 -0.000656636 0.000191584)
(-5.21173e-05 -0.000461344 -0.000164019)
(2.61589e-05 -0.000162831 -3.52367e-06)
(0.000514585 -0.000442295 1.38955e-05)
(-0.00111001 -0.000214421 -0.00359236)
(-0.000443493 -0.000585231 -0.000656581)
(-0.000356752 -5.49001e-05 -0.000172945)
(0.000701514 -0.00150015 -0.000354272)
(0.000478157 -0.00138095 0.000100947)
(0.000352141 -0.00163507 3.18951e-05)
(0.000729955 -0.00103828 1.54305e-06)
(0.000407435 -0.000769614 -5.01879e-05)
(0.000433452 -0.00034112 -8.89739e-05)
(0.000327152 -0.000404474 -2.25089e-05)
(0.000269058 6.33482e-05 -1.86282e-05)
(0.000376199 -1.30683e-05 -4.07704e-06)
(-0.00302934 -0.000880226 0.000483614)
(0.000462481 0.000101348 -2.95546e-05)
(0.000919891 0.000138878 0.000175937)
(0.000637755 -0.000187411 7.95164e-05)
(0.000118637 -0.00105258 1.71434e-05)
(0.000640906 -0.000820832 -7.61381e-05)
(0.00111494 -0.000356374 9.4677e-06)
(0.00143022 -0.000365181 -2.97125e-05)
(0.000905474 -0.000593866 -8.11507e-05)
(0.000997815 -0.000666191 7.43517e-06)
(0.000390176 -0.000379069 0.000118339)
(0.000834601 -0.000559099 2.8093e-05)
(0.000516866 -0.000615902 6.51389e-05)
(0.000829785 -0.000654651 -8.1622e-06)
(0.000712324 -0.000604603 -7.32683e-05)
(0.000828605 -0.000411743 0.000124926)
(0.000730002 -0.000163431 -3.72717e-06)
(0.000412594 -0.000289716 -8.10792e-05)
(0.000570992 -0.000359631 -1.49241e-05)
(0.000542055 0.0001089 0.00012595)
(0.000729668 -0.000607475 0.000122257)
(0.000524814 -0.000666913 6.00855e-06)
(0.000456522 -0.00103257 -1.33786e-05)
(0.000250335 -0.000434743 -5.50507e-05)
(0.000743448 -0.000585235 8.14061e-05)
(0.000632759 -0.000778528 -8.27619e-05)
(-0.000217941 -0.000529234 -0.00021686)
(-0.00010857 -0.00185505 -6.40484e-06)
(0.00157425 -0.00133769 -9.9643e-05)
(0.000397499 -0.00157933 7.92324e-06)
(-0.000746649 -0.00133248 -8.91541e-05)
(-8.28162e-05 -0.00196657 0.000225784)
(0.000102524 -0.00125297 -1.634e-05)
(-0.0007053 -0.00173055 -0.000333007)
(0.000411469 0.000909127 -0.000181106)
(0.00166268 -0.00100805 -9.557e-06)
(0.0014677 -0.00209563 -0.00367678)
(0.000961324 -0.00163082 0.000611546)
(0.00179074 -0.00155937 -0.000237463)
(0.000117839 -0.00251622 -2.31263e-05)
(-0.000956493 -0.00355894 0.000179995)
(0.000191399 -0.000750028 0.00392617)
(0.000194949 -0.00273615 0.0168295)
(9.70801e-05 -0.0033114 0.000484003)
(0.000155361 -0.00132892 -1.33163e-05)
(0.000742001 -0.0010475 0.00149597)
(-0.00113088 -0.000692646 0.000113988)
(0.00031416 -0.000172746 7.00353e-05)
(0.000554319 0.000179639 0.000663145)
(0.000652952 -0.0010557 -3.57449e-05)
(0.00110511 -0.000847522 0.000236292)
(0.00016337 -0.00145573 -0.000548469)
(0.000191344 -0.00132154 0.00124663)
(1.13468e-05 -0.00133119 -3.0929e-05)
(-0.00324296 -0.00268069 -0.00454724)
(0.000115668 -0.00142718 8.61846e-05)
(0.000871737 -0.00273208 -0.00380833)
(0.00128692 -0.00674156 4.45508e-05)
(0.000512423 -0.00102732 0.000213905)
(0.000344634 -0.0010183 4.07757e-05)
(0.000277429 -0.000607971 -4.79041e-05)
(0.000759185 -0.00270036 0.000621438)
(0.000269161 -0.00103416 8.94517e-05)
(-0.000698751 -0.00114022 0.000330512)
(0.00110562 -0.00165736 0.00725248)
(0.000443755 -0.00135094 -0.00190964)
(-0.000158973 -0.00147439 0.00469205)
(-0.000622545 -0.00210103 3.54647e-05)
(-0.000505629 -0.00107941 -0.00592774)
(-0.000550124 -0.000653613 -0.00220829)
(-0.00015274 -0.000534744 -0.000144539)
(-0.000824508 -0.000313743 -0.000813398)
(-0.000817891 -0.000615026 1.23558e-06)
(-0.00126645 -5.19735e-05 -0.000753465)
(-0.00139256 -0.000170101 1.45301e-06)
(-0.00436008 -0.00177939 0.000830905)
(0.00113275 -0.000167489 6.36509e-05)
(-0.00107219 -0.00249164 9.96531e-05)
(0.000451237 -0.0010045 -4.39494e-05)
(0.000845815 -0.000571804 -3.04276e-05)
(0.00125529 -0.000521929 3.18078e-05)
(0.00126579 -0.000646534 2.1186e-05)
(0.00029219 -0.0010349 -1.88967e-05)
(-0.000193777 -0.00105326 5.11881e-05)
(0.000285171 -0.000823199 3.84265e-05)
(0.000352385 -0.000727944 0.000501812)
(0.00133332 -0.000406509 1.08966e-07)
(-0.000102515 -0.00050141 -1.32431e-05)
(0.000780355 -0.000569294 5.41907e-05)
(0.000861323 -0.0003077 7.22812e-06)
(0.000918063 -0.000573092 -0.000242753)
(0.000852789 -0.000657434 -4.46311e-05)
(0.000862005 -0.000609757 3.86892e-05)
(0.000867191 -0.000524163 0.000423312)
(0.00104897 -0.00038716 3.11765e-05)
(0.000797276 -0.000266842 0.000154604)
(0.00126244 -8.96911e-05 0.000480974)
(0.000923796 -0.000252221 -0.000113338)
(0.000521153 -0.000517195 -0.000324219)
(0.000424926 -3.83135e-05 -3.67522e-05)
(0.000813817 -0.000756024 1.38437e-05)
(0.000655096 -0.000425845 1.10169e-05)
(0.00147441 -0.00216079 -5.00098e-05)
(0.000612271 -0.000702021 0.000164728)
(0.000462407 -0.000430655 -4.31542e-05)
(0.000144637 -0.000836827 3.22464e-05)
(0.000538622 -0.00151191 -0.000180494)
(0.00075233 -0.00280807 -0.000310011)
(0.000921607 -0.00240522 -0.000270483)
(-0.000949076 -0.00249221 0.00197867)
(8.09934e-05 -0.00236686 -0.000946022)
(2.99794e-05 -0.00163579 -5.6897e-05)
(0.0004348 -0.00222084 0.000365032)
(0.00236909 -0.0015004 -0.000333496)
(-0.000100716 -0.00289988 -7.58381e-05)
(-0.000744111 -0.00365025 -1.42751e-07)
(0.000488645 -0.00135822 0.000505554)
(0.000218994 -0.00129482 -0.000191703)
(-0.000259262 -0.00334729 -0.000386691)
(0.00142296 -0.000973648 -0.00160111)
(-0.00106959 -0.000746894 -0.000170485)
(-0.0014988 -0.000739613 -0.00777084)
(-0.00116725 0.000215745 0.00533774)
(-0.000645753 -0.00158664 7.69052e-05)
(0.000596931 -0.000758167 5.04199e-05)
(-0.000176401 -0.00141778 -4.6349e-05)
(0.000370343 -0.00123828 1.87707e-05)
(-0.000921403 -0.0015817 6.13225e-05)
(0.000133465 -0.00136504 6.34066e-06)
(-3.65636e-05 -0.00123961 3.18026e-05)
(-0.000164465 -0.00138226 -8.02773e-05)
(0.000225214 -0.00146611 -3.37335e-06)
(0.000437204 -0.00162076 4.83484e-05)
(-0.00101269 -0.00488585 0.00248861)
(-0.000168854 -0.00120836 -3.15582e-05)
(-0.000159313 -0.000566514 -0.00112866)
(0.00013796 -0.0007661 6.26445e-05)
(0.000149101 -0.0011088 -7.87695e-05)
(-8.14358e-06 -0.000459287 -2.48619e-05)
(-0.000353702 -0.00090131 1.43116e-05)
(-0.000768104 -0.00164301 0.00825166)
(-0.00107222 -0.00243444 3.46035e-05)
(-0.000513158 -0.00191286 0.000169832)
(-0.000393295 -0.00129174 -6.92693e-05)
(-0.000671818 -0.00158144 -0.000140402)
(-0.000414818 -0.000539298 -9.25715e-06)
(-0.000568834 -0.000169015 0.000118437)
(-0.00080003 -0.000314401 -0.00351215)
(0.000416904 -0.00260006 -5.48172e-05)
(-0.000739409 -0.00081351 -2.41834e-05)
(0.000301192 -0.00181897 -1.36677e-05)
(-0.00190455 -0.00279908 0.000300126)
(8.54293e-05 -0.00275974 4.25895e-05)
(-0.00199006 -0.00436645 0.000109046)
(0.00100944 -0.000613722 3.96486e-05)
(0.000140109 -0.000704203 0.00104674)
(0.000491743 -0.000423161 9.58005e-05)
(0.000499461 -0.000431875 5.02374e-06)
(0.00018377 -0.00127268 -7.88817e-05)
(0.000152646 -0.0011937 -9.87703e-05)
(0.000462493 -0.000219353 0.000178385)
(0.000299212 -0.000577442 -1.55689e-05)
(0.000480329 -0.000776393 -1.83453e-05)
(0.00080699 -0.000631914 -6.59213e-06)
(0.000745441 -0.000577521 -8.59008e-05)
(0.000708399 -0.000499292 -7.86952e-05)
(0.00198748 -0.00094606 -1.403e-05)
(0.000565611 -0.000592442 5.83797e-06)
(0.000564432 -0.000454238 0.000121124)
(0.000635117 -0.000469336 -5.45565e-05)
(0.000842 -0.000535723 -0.000131363)
(0.000583414 -0.000537834 -0.000353538)
(0.00138631 -0.000569468 -0.000863476)
(0.000851664 -0.000757398 2.28613e-05)
(0.000681033 -0.000588242 0.000121621)
(0.00103205 -0.000451967 -0.000339109)
(0.0007508 -0.000514351 -6.6195e-05)
(0.000783168 -0.000470329 4.6733e-05)
(0.000619851 -0.000638123 -6.62014e-05)
(0.000736617 -0.000399444 -5.84051e-05)
(0.00115638 -0.000229815 -0.000649322)
(0.000889065 -0.00170781 4.53785e-05)
(-9.50349e-05 -0.00260408 -7.33873e-05)
(0.00110167 -0.00207458 -9.03153e-05)
(0.000151711 -0.00209693 8.23126e-05)
(0.00111974 -0.0018948 -1.36703e-05)
(-0.000934142 -0.00217803 -0.0005902)
(-0.000178485 -0.00150062 0.00203018)
(-0.000324941 -0.00103764 0.00402773)
(2.40226e-06 -0.0018216 0.00399763)
(0.00047392 -0.00229281 0.00017218)
(-0.00078223 -0.00195319 0.000170441)
(0.000122205 -0.00240307 -0.000157795)
(0.000286717 -0.00280218 7.05536e-05)
(0.000605372 -0.000493662 -0.000175046)
(-8.29822e-05 -0.000811901 -0.000127103)
(-0.000170121 -0.000242436 7.26486e-05)
(-0.00147825 -0.00300774 8.15458e-05)
(-7.06371e-06 -0.000790118 0.000169827)
(0.000330836 -0.000201526 -0.000313193)
(-0.000505546 -0.000909679 -0.000204089)
(0.00052779 -0.000781295 -0.000121714)
(-0.00069949 -0.00156257 -1.59261e-05)
(-0.000625591 -0.00133275 8.00415e-05)
(-7.22505e-05 -0.00132587 1.45195e-05)
(0.000119605 -0.00131322 -3.95805e-05)
(-0.000202759 -0.00126194 6.63048e-05)
(-0.0054847 -0.00370556 -0.000323805)
(0.000208228 -0.00123374 -0.000501935)
(0.000210774 -0.0014127 -9.82221e-06)
(8.36082e-05 -0.00156535 -0.000105032)
(6.14902e-06 -0.00129038 -3.22587e-05)
(0.000144667 -0.0012314 2.66999e-05)
(-0.000285287 -0.00149061 0.000134372)
(0.000133825 -0.00128826 8.3453e-05)
(-4.14486e-05 -0.000477759 -4.59574e-05)
(-0.000137908 -0.000366272 -0.000153436)
(0.000309779 -0.000617162 2.71289e-05)
(-0.000475838 -0.00145722 7.12467e-05)
(0.000249714 -0.00118834 -0.00056307)
(-0.000435025 -0.00176315 -5.10009e-05)
(0.000672266 -0.00105716 3.02143e-05)
(0.00104456 -0.00145881 -3.26366e-05)
(0.00249152 -0.00144051 2.98256e-05)
(0.000876476 -0.00140324 3.66636e-05)
(0.00179305 -0.00117384 -0.000230814)
(0.000976385 -0.00238123 0.000154519)
(0.00143996 -0.00179795 1.91171e-05)
(0.00226924 -0.00302003 1.37086e-05)
(0.000594754 -0.000714651 -0.000195552)
(0.00279073 -0.0013355 -8.78385e-05)
(0.000294335 -0.000369119 -9.32399e-05)
(0.000233672 -0.000555774 0.000430811)
(0.000576898 -0.000758036 -1.0262e-05)
(0.000397888 -0.000604973 -6.28875e-06)
(0.00053943 -0.000752401 -3.3563e-05)
(0.000380493 -0.000573732 -1.78713e-05)
(0.000755439 -0.000485571 -0.000239942)
(0.000831508 -0.000452505 -7.42976e-05)
(0.00102035 -0.000506368 9.19658e-05)
(0.000898451 -0.000488761 -9.60643e-05)
(0.000969678 -0.000269537 -0.000153443)
(0.000974951 -0.00069782 -8.57328e-07)
(0.00110628 -0.000695253 -9.96061e-05)
(0.0010909 -0.000775578 8.90477e-05)
(0.00107373 -0.000861138 0.000141251)
(0.00106006 -0.000630098 -0.000273202)
(0.00102965 -0.000631337 -0.000130096)
(0.000869684 -0.000699681 -6.99231e-05)
(0.000814645 -0.000513476 0.000171705)
(0.000831755 -0.000469911 8.59053e-06)
(0.000759099 -0.00035113 2.13367e-05)
(0.0012201 -0.000796028 -3.65471e-05)
(0.00138478 -0.000690346 -0.000187005)
(0.00151771 -0.00121927 -0.00184896)
(0.0014536 -0.00130851 -8.15841e-05)
(0.000987059 -0.00139235 -0.000139168)
(0.000661526 -0.00172449 -6.20446e-05)
(0.000611521 -0.00170975 -0.000691227)
(0.000409837 -0.0014912 -0.00103149)
(0.0004432 -0.000791778 0.000584003)
(-0.000910441 -0.00181664 -0.000176662)
(0.00279422 -0.00313614 0.0032618)
(0.00110721 -0.00296461 -0.00121356)
(6.74383e-05 -0.00263054 -0.000158937)
(-0.000277702 -0.00118502 0.000622586)
(-0.000278854 -0.000759346 -0.000419219)
(0.000127902 -0.000912666 0.000368117)
(0.000341276 -0.000536421 0.000109166)
(0.000143742 -0.00100527 0.000435742)
(0.000323735 -0.00131398 -0.000719664)
(0.000225929 -0.000969877 -1.6523e-06)
(0.000220013 -0.00100263 5.77076e-06)
(-3.24856e-05 -0.00145518 0.00215366)
(-2.25849e-05 -0.00135099 9.90617e-05)
(-0.000356384 -0.00146108 -5.88564e-07)
(-0.000257711 -0.00148688 -9.40359e-05)
(-0.000139517 -0.00121231 1.81202e-05)
(0.000143101 -0.00122239 -0.000194471)
(0.00031965 -0.00123029 -0.000206422)
(0.000387988 -0.0011722 -0.000295769)
(0.000446528 -0.000968878 -3.69512e-05)
(0.000141676 -0.00112598 -3.91065e-05)
(0.000193766 -0.000712644 -0.000309259)
(0.000325678 -0.00140468 0.000226884)
(9.21771e-05 -0.00115136 -0.000150136)
(0.000576323 -0.00145507 0.0002727)
(7.38075e-06 -0.00123248 -2.84685e-05)
(0.000168593 -0.00118976 -6.33569e-05)
(0.000748269 -0.000929052 0.000135767)
(0.000782445 -0.00105458 2.11835e-05)
(0.000361877 -0.00127943 -0.0027949)
(0.000678866 -0.00148064 -0.00188628)
(0.000441496 -0.0012662 -0.00304678)
(0.000875436 -0.00198758 -0.000554532)
(0.00125111 -0.00193162 0.0002444)
(0.0016325 -0.00109626 0.000109026)
(0.00174115 -0.00172896 -4.29887e-05)
(0.00208756 -0.00160623 0.000160556)
(0.0019623 -0.0016025 0.000181717)
(0.00101418 -0.00225161 0.00014935)
(0.000260365 -0.00159695 0.000463662)
(0.00262341 -0.00290068 0.002213)
(5.27061e-05 -0.00287908 1.49785e-06)
(0.00276136 -0.00138617 -0.000138454)
(0.00119021 0.000222453 -0.000122908)
(0.00132219 7.61152e-05 -6.76874e-05)
(0.000745727 -0.000248084 -0.000147961)
(0.00144149 -0.00122601 -0.00105814)
(0.000850998 -0.000300179 4.23852e-05)
(0.000657713 -0.000547208 -1.42838e-05)
(0.000646946 -0.000876472 -0.000111632)
(0.000739032 -0.000680851 -1.75246e-05)
(0.000690151 -0.000714172 0.000233867)
(0.000371469 -0.000744498 0.00067878)
(0.000823048 -0.000598781 -0.000173443)
(0.0010023 -0.000467444 -0.000293804)
(0.000996469 -0.000598459 -0.000238666)
(0.00105791 -0.000588925 -0.000482142)
(0.00098157 -0.000647259 0.000473923)
(0.000949247 -0.000721266 -1.30121e-05)
(0.00101507 -0.00065413 4.42987e-05)
(0.000863011 -0.000660976 -3.58738e-05)
(0.000930489 -0.000639806 0.000593463)
(0.000856366 -0.0006162 -2.22759e-05)
(0.000910753 -0.000668466 4.37301e-05)
(0.00090819 -0.000478508 8.48768e-05)
(0.000578343 -0.000576879 0.000131496)
(0.000937119 -0.000664797 -4.81863e-05)
(0.00093855 -0.000524313 0.000664634)
(0.00083967 -0.000476081 8.04428e-06)
(0.00116734 -0.00061641 -3.10977e-05)
(0.00131344 -0.000983469 -0.000116707)
(0.000778177 -0.00144501 0.00175011)
(-0.000297041 -0.00124871 -0.00163048)
(0.000242077 -0.00100829 0.00021797)
(-4.34546e-05 -0.00108454 -0.0002724)
(7.51906e-05 -0.000742817 0.000158098)
(0.00026506 -0.000520979 -5.35308e-05)
(-0.000221482 -0.00274711 -0.00021197)
(0.00197757 -0.00324623 0.000864311)
(0.000227265 -0.00300127 -0.000499711)
(0.000251077 -0.00157539 0.000525217)
(-0.000105874 0.000114371 -0.000412747)
(0.000151572 -0.000639896 -0.000378918)
(0.000407061 0.000161632 9.97906e-05)
(0.000135933 -0.00116554 5.42753e-07)
(0.000348459 -0.000488747 -6.39663e-05)
(0.000434756 -0.00196661 -5.30982e-05)
(0.000579161 -0.00125343 -4.32745e-05)
(0.000382109 -0.000948082 -7.03451e-05)
(9.00338e-05 -0.000992378 -1.21777e-05)
(8.7608e-05 -0.00123503 7.5595e-06)
(0.000333343 -0.00127413 -2.38948e-05)
(0.000238306 -0.00110309 3.24619e-05)
(0.000270757 -0.000871691 6.04161e-05)
(0.000159426 -0.00124089 -3.74004e-05)
(-0.000126915 -0.00125216 3.48817e-05)
(0.000310643 -0.00125 -0.000403336)
(-1.76753e-05 -0.00104542 -6.77467e-05)
(0.000226696 -0.000627497 0.000177111)
(0.000344245 -0.000700318 1.81077e-05)
(0.001032 -0.00082084 4.45935e-05)
(-0.000240427 -0.000940234 -8.49985e-05)
(0.000161052 -0.00117438 9.14766e-05)
(-0.000565571 -0.00113029 -0.000170585)
(0.000144124 -0.00110067 -0.000150599)
(0.000833461 -0.00125098 -0.000148594)
(-7.64349e-05 -0.000850661 -0.000111438)
(0.000808619 -0.00118855 -3.31741e-05)
(0.00108898 -0.00159839 0.000268244)
(0.000858112 -0.00199061 -0.000337602)
(0.000961272 -0.00145986 1.44665e-06)
(0.000920912 -0.00164293 9.37351e-06)
(0.000966395 -0.0021143 -0.000245054)
(0.00156992 -0.00176598 0.000251161)
(0.001148 -0.00144768 2.36226e-05)
(0.00120976 -0.00131589 0.00040637)
(0.00115487 -0.00212877 -3.75541e-05)
(0.00107664 -0.00125789 -0.000228308)
(0.00102921 -0.000361793 8.32802e-05)
(0.000530625 9.22738e-05 -0.000162879)
(0.000455814 -0.000486451 0.000178969)
(0.000590383 -0.000653743 1.92622e-05)
(0.000478403 -0.00105466 5.49247e-05)
(0.000166322 -0.0010301 -3.52487e-05)
(0.000104632 -0.000997656 0.00392134)
(0.000978539 -0.00073487 0.000554605)
(0.000757631 -0.00074068 -0.00287524)
(0.00110602 -0.000847065 -0.00239855)
(0.000985928 -0.000656358 -0.000142069)
(0.000946644 -0.000944836 -0.000347973)
(0.00094549 -0.000739454 -0.000422798)
(0.000801862 -0.000750145 0.000161327)
(0.000811034 -0.00068732 2.52321e-05)
(0.000782761 -0.000622752 1.59552e-05)
(0.000858144 -0.000570427 0.000210156)
(0.000855032 -0.000633994 6.07003e-05)
(0.000766509 -0.000543811 3.98318e-05)
(0.000829334 -0.000408526 -0.000167196)
(0.00078709 -0.000520036 -0.000147234)
(0.00093815 -0.000619884 1.51045e-05)
(0.000792463 -0.000665169 -3.19573e-05)
(0.00084063 -0.000709773 0.000166827)
(0.000647069 -0.000407768 -1.15764e-05)
(1.25381e-05 -0.00066708 0.000139335)
(0.000268789 0.000227489 -0.000196912)
(0.000375981 -0.000811155 -0.000175261)
(0.00037836 -0.000946685 3.81529e-05)
(0.00102154 -0.00155271 0.00077413)
(0.00203123 -0.000663907 0.00497972)
(0.000602168 -0.0011641 0.000487678)
(0.000702862 3.0504e-05 -0.000131497)
(-0.000266418 -0.00165052 -7.02456e-05)
(0.000802223 -0.000770808 0.000214582)
(-0.00141079 -0.000293666 -0.000619132)
(0.000144163 0.000285689 4.69581e-05)
(-0.000128268 0.000134633 -9.31224e-05)
(0.000698225 0.000519095 -0.000854873)
(0.000334543 -0.00160528 -0.000391591)
(-1.39688e-05 -0.0018976 0.00231003)
(0.00217566 -0.00196493 2.50463e-06)
(0.000132873 -0.00110897 -0.000222257)
(-6.67229e-05 -0.000627542 6.54565e-05)
(8.67997e-05 -0.000671183 -2.33511e-05)
(2.21006e-06 -0.000683264 0.000481915)
(0.000196413 -0.000875246 9.23355e-06)
(2.45887e-05 -0.000655603 -0.000138614)
(6.41845e-05 -0.000803026 -5.67878e-06)
(3.52311e-06 -0.000536007 2.20441e-05)
(-0.000259675 -0.00105126 5.35804e-05)
(0.000206683 -0.000790655 2.45585e-05)
(-0.000249 -0.000948197 0.000127909)
(-0.000112143 -0.00111849 -0.000151397)
(0.000278177 -0.000481753 -3.23541e-06)
(-0.00048574 -0.000807901 -0.000288841)
(0.000803314 -0.000659116 -0.00042624)
(0.0010914 -0.00107419 0.000125717)
(-0.000393677 -0.00107757 0.00029634)
(0.000632998 -0.00125172 0.00239903)
(-5.34131e-05 -0.00171688 6.35463e-05)
(0.000821972 -0.00128321 -3.76775e-05)
(0.00102595 -0.00132376 0.000137546)
(0.000908363 -0.00126987 9.32189e-05)
(0.000714565 -0.00145255 -0.00134523)
(0.00127364 -0.00154326 0.000252524)
(0.00148211 -0.0022315 0.000162809)
(0.00142024 -0.00206204 8.24764e-05)
(0.000591742 -0.00197904 0.000135245)
(0.00115696 -0.00134201 -0.000111004)
(0.000680039 -0.00149504 -1.00535e-05)
(0.00101361 -0.00169567 -0.00038819)
(0.000594507 -0.00214183 0.000123613)
(0.000931053 -0.00200759 9.3891e-05)
(0.000558659 -0.00116542 2.42386e-05)
(0.000722605 -0.000803802 -0.000758172)
(0.000516977 0.00029914 0.000128205)
(0.000236049 2.15993e-05 -0.00040697)
(0.000129835 -0.000618322 5.51218e-05)
(0.0005396 -0.000929754 7.51107e-05)
(0.000503773 -0.000653131 -6.0983e-06)
(0.000297272 -0.00114501 -8.66583e-05)
(0.000704262 -0.0011135 1.2727e-05)
(0.000806882 -0.00183059 -0.000447212)
(0.000543166 -0.00115951 0.000167376)
(0.000963195 -0.00128728 0.00183922)
(0.000891869 -0.00163235 0.00452377)
(0.00109302 -0.00087898 -1.71781e-06)
(0.000942962 -0.000817988 -0.00015059)
(0.000721854 -0.000793708 -1.16274e-05)
(0.000890868 -0.000806634 3.45558e-05)
(0.000912551 -0.000808966 -0.000386096)
(0.00098813 -0.000628766 9.05257e-06)
(0.00102246 -0.000669496 2.90245e-05)
(0.000859548 -0.000651075 5.72157e-05)
(0.000849508 -0.000622089 0.000115166)
(0.00092758 -0.000636953 0.000214471)
(0.000852472 -0.000594637 4.92005e-05)
(0.000889112 -0.000729553 0.000188908)
(0.00066323 -0.000583072 -0.000276713)
(0.000696156 -0.000569655 6.86108e-05)
(0.000579679 -0.000586051 -2.23324e-05)
(0.00104155 -0.00103283 0.00013429)
(0.000586731 0.000864548 2.88033e-05)
(0.000883091 0.00127573 0.000759357)
(0.000190902 0.000723306 -0.000126723)
(0.000654639 -0.000731553 0.00216139)
(0.000480641 -0.000895941 0.000110391)
(0.0010847 -0.0010301 -0.000186987)
(0.00101456 -0.000765334 -4.92527e-05)
(0.000953353 -0.000345803 -0.00030024)
(0.00137168 -0.000133984 -0.000171858)
(0.000565961 -0.000273099 -0.000197154)
(0.00153515 0.000404394 0.000180665)
(-0.00190387 0.00144286 -0.00398238)
(-0.0010598 -0.00203082 0.000253244)
(-0.00258407 -0.00200538 0.0036011)
(-0.000458947 -0.00093865 0.000199652)