/*--------------------------------*- C++ -*----------------------------------*\
  =========                 |
  \\      /  F ield         | OpenFOAM: The Open Source CFD Toolbox
   \\    /   O peration     | Website:  https://openfoam.org
    \\  /    A nd           | Version:  8
     \\/     M anipulation  |
\*---------------------------------------------------------------------------*/
FoamFile
{
    version     2.0;
    format      ascii;
    class       vectorField;
    location    "0/lagrangian/kinematicCloud";
    object      angularMomentum;
}
// * * * * * * * * * * * * * * * * * * * * * * * * * * * * * * * * * * * * * //


3300
(
(-3.09588e-24 4.48868e-30 1.79472e-25)
(-1.48003e-24 -6.58749e-30 2.02679e-26)
(4.26718e-24 2.15948e-29 -2.41213e-24)
(-5.92122e-24 -1.68278e-29 3.65926e-24)
(-4.37826e-24 1.02849e-23 9.6044e-24)
(5.10675e-24 -6.56837e-26 -4.81912e-24)
(-5.42682e-25 5.41047e-31 -5.86821e-24)
(-2.18524e-24 -1.82903e-39 2.11816e-24)
(-9.75827e-26 -2.26335e-28 -2.91683e-25)
(1.16214e-25 9.2779e-31 -7.6653e-26)
(-4.18477e-24 -6.00349e-31 3.52358e-22)
(2.76105e-24 1.58373e-24 -1.51597e-20)
(2.17985e-24 -2.86326e-25 6.92025e-19)
(7.00842e-25 6.7189e-30 -7.72228e-24)
(-6.55158e-25 1.29349e-27 1.799e-24)
(7.18687e-25 -1.12683e-29 -3.33966e-25)
(-1.3885e-24 -2.20614e-32 1.28155e-25)
(-2.78163e-24 -6.49272e-30 -4.78589e-25)
(2.82321e-24 6.20293e-28 2.03427e-24)
(1.74109e-24 -1.75749e-26 -3.24207e-25)
(3.84722e-27 -1.66973e-30 -1.98614e-24)
(-1.99009e-25 3.10325e-30 4.66423e-25)
(5.70398e-26 -7.09925e-29 -2.19731e-25)
(-1.12693e-24 1.99287e-38 -5.24659e-26)
(-1.66085e-24 -8.17173e-29 3.28109e-27)
(1.67571e-24 6.41541e-28 2.37462e-26)
(1.33081e-24 -2.03178e-28 -2.38661e-27)
(-3.32229e-25 9.17918e-31 -4.96093e-26)
(-9.61005e-26 2.41456e-31 2.43055e-25)
(-8.52135e-25 4.70552e-28 -4.51195e-25)
(-1.07426e-24 -1.62172e-26 1.72213e-24)
(5.01113e-25 -2.16808e-29 -1.06232e-24)
(1.05882e-24 1.21942e-25 8.79299e-25)
(9.43715e-25 -2.51342e-29 -5.93312e-26)
(1.08189e-19 3.56167e-19 2.74084e-08)
(-3.6036e-19 -3.90793e-20 3.23663e-08)
(-3.1685e-19 -1.49054e-20 -2.62542e-08)
(3.54426e-19 -1.51665e-19 4.57742e-08)
(-1.62374e-19 -1.91416e-19 -4.95254e-10)
(9.2647e-20 -4.35008e-20 -3.53367e-09)
(-1.19328e-19 5.94216e-21 1.07637e-09)
(1.52816e-19 -5.70833e-21 1.82814e-09)
(-1.4783e-19 6.35529e-20 2.60999e-09)
(-2.86417e-19 -7.58924e-22 2.13818e-10)
(4.52617e-19 8.36123e-23 -1.57529e-09)
(-3.51566e-19 -1.16193e-21 4.05131e-10)
(5.37564e-21 5.53952e-23 1.54596e-10)
(9.43745e-21 -3.55927e-25 -1.14098e-10)
(9.75321e-20 -1.44903e-23 2.16664e-11)
(-9.84072e-20 -2.64684e-23 4.09367e-12)
(-1.04926e-19 -7.08558e-24 -4.11126e-12)
(2.20189e-19 -7.72863e-24 1.38503e-12)
(-3.14502e-19 -1.2416e-23 -1.23089e-14)
(2.40863e-19 -3.49757e-24 -1.90165e-13)
(-1.19484e-19 -4.35528e-23 -5.9528e-14)
(-3.11033e-20 -3.19734e-23 1.11896e-14)
(5.66341e-20 -2.98556e-23 2.36302e-14)
(-1.67943e-21 -1.13038e-23 7.97878e-15)
(-2.28034e-20 -3.68802e-24 3.25117e-15)
(-2.67237e-19 5.31968e-24 -2.45031e-15)
(3.42787e-19 -2.87347e-23 -3.86678e-15)
(-1.98332e-19 -9.05488e-23 7.29775e-16)
(-2.42087e-20 -3.11124e-23 4.27543e-15)
(8.58621e-22 -1.97727e-23 4.07409e-16)
(1.76011e-20 -1.16372e-23 -4.30728e-15)
(6.58767e-20 -1.53661e-23 -3.46984e-15)
(-2.6232e-19 1.09182e-23 -4.87067e-17)
(2.14126e-19 -1.83236e-23 2.21918e-15)
(-8.70428e-20 -1.42656e-22 1.56948e-15)
(-9.6681e-21 -5.11094e-23 2.96156e-16)
(-4.25413e-21 -5.85759e-22 -1.30574e-09)
(1.43597e-20 -9.79598e-23 -4.90024e-10)
(4.53648e-20 -5.27707e-22 -5.20755e-10)
(-1.62422e-19 2.01757e-24 -6.96834e-17)
(1.7327e-19 -3.08675e-23 -7.77572e-15)
(-7.00721e-20 -1.18048e-22 2.33684e-17)
(-2.0929e-21 -3.43067e-23 -5.93955e-15)
(1.49106e-20 -1.83108e-23 -1.15023e-18)
(1.48936e-20 -4.3041e-24 -3.86786e-16)
(1.86471e-20 -1.82316e-23 1.71554e-19)
(-7.19929e-20 3.99164e-25 -5.82201e-16)
(1.05771e-19 -1.94138e-23 -9.87756e-20)
(-6.94204e-20 -5.2992e-23 -5.4778e-19)
(3.61224e-20 -3.648e-23 -4.54211e-19)
(-9.9131e-21 -1.98719e-23 1.83277e-19)
(8.50662e-22 -7.15493e-24 2.56941e-18)
(3.21375e-20 -2.25914e-23 4.24873e-18)
(-5.3742e-20 9.38416e-25 4.00815e-18)
(5.5248e-20 -1.23305e-23 3.37135e-18)
(-3.03201e-20 -3.90209e-23 2.70904e-18)
(2.1529e-20 -1.55625e-23 2.03568e-18)
(-1.23698e-20 -1.57044e-23 1.41003e-18)
(2.68577e-21 -1.28171e-23 8.43407e-19)
(1.51769e-20 -1.94097e-23 4.17728e-19)
(-2.06184e-20 -3.15426e-24 2.34548e-19)
(2.21506e-20 -2.90943e-23 1.7957e-19)
(-1.88013e-20 -3.7073e-23 1.0892e-19)
(1.47501e-20 -1.31598e-23 2.8299e-20)
(-7.92855e-21 -1.35512e-23 -5.80281e-21)
(8.82084e-22 -1.34404e-23 -7.48352e-21)
(6.72078e-21 -3.79723e-23 1.24154e-21)
(-8.91718e-21 -4.95378e-24 2.6524e-22)
(8.16764e-21 -4.11729e-24 -1.49097e-21)
(-4.96002e-21 -1.56033e-23 1.17114e-21)
(2.37816e-21 4.38479e-25 -2.64766e-23)
(-2.97265e-19 3.7265e-19 4.06369e-08)
(1.19853e-18 -5.4339e-19 -4.40944e-08)
(-3.31451e-19 -4.94673e-19 4.20163e-08)
(2.19247e-19 -2.18653e-20 -4.72957e-08)
(1.02976e-19 1.2343e-19 8.29126e-09)
(-1.22346e-19 -5.83556e-21 2.08715e-11)
(-2.99859e-20 1.04778e-20 -1.05315e-08)
(1.20292e-19 -3.47035e-20 -1.18317e-09)
(1.28811e-20 1.19546e-19 2.11689e-11)
(-9.8803e-20 -3.66071e-22 1.2145e-09)
(3.06351e-20 -3.02477e-22 -2.71247e-09)
(2.30962e-20 5.21692e-23 -9.84188e-10)
(-1.15e-20 4.52814e-21 4.43344e-09)
(2.90523e-21 1.02503e-22 -4.5824e-09)
(-4.65083e-21 -3.3181e-23 9.96283e-10)
(2.3701e-21 3.42052e-22 -1.02667e-11)
(3.83958e-21 -4.75768e-23 -2.16944e-10)
(-1.40003e-21 1.52938e-22 1.36247e-10)
(-7.05009e-21 3.29917e-21 9.78328e-11)
(6.76688e-21 -2.19341e-22 -2.44895e-10)
(1.40201e-21 -6.54126e-24 9.16843e-11)
(-6.58962e-21 -5.93627e-23 -4.04769e-11)
(3.22109e-21 7.98435e-22 3.88323e-10)
(2.41667e-21 -6.49264e-23 -4.02767e-10)
(-3.03962e-22 2.81251e-22 -7.73127e-11)
(-4.2298e-21 2.07662e-21 2.71781e-10)
(2.31253e-21 -2.36841e-22 -2.37719e-10)
(1.8587e-21 -7.16065e-23 -1.24607e-12)
(-3.03579e-21 -3.13573e-23 1.69395e-10)
(1.03279e-21 -3.77876e-23 -1.69926e-10)
(8.93709e-22 -2.97228e-23 3.70609e-11)
(1.88587e-21 1.15664e-22 3.69713e-11)
(-3.36346e-21 3.76167e-25 -5.2314e-11)
(5.68072e-23 -2.83792e-23 5.35057e-11)
(1.16059e-21 -1.88819e-22 1.95305e-10)
(-5.88276e-22 -5.28756e-23 -2.29079e-10)
(1.21782e-21 -9.11907e-23 2.01271e-10)
(-1.34589e-21 -5.67179e-22 -8.18777e-10)
(1.53553e-21 -2.64805e-23 7.48865e-10)
(-6.44561e-22 -5.73073e-22 -4.44242e-11)
(-1.52495e-21 -3.73625e-23 3.39435e-11)
(1.25476e-21 2.55053e-22 5.685e-11)
(3.45179e-23 -5.48374e-23 -8.91909e-11)
(-5.95993e-23 -9.11184e-23 1.55011e-10)
(2.06986e-22 -5.39244e-24 -1.93655e-10)
(-1.98182e-22 -1.85331e-23 8.02096e-11)
(5.88736e-23 1.79134e-23 1.04759e-10)
(1.62775e-22 -4.84368e-23 -3.13434e-10)
(-2.22778e-22 -4.73941e-23 -5.90206e-12)
(3.4729e-23 -8.20071e-23 5.5238e-11)
(3.59752e-23 -2.0549e-23 -4.26774e-10)
(-4.79885e-23 -2.12599e-23 2.16271e-10)
(-4.25078e-23 -5.83302e-23 3.58143e-10)
(9.99897e-23 1.28618e-22 6.91727e-10)
(3.49385e-23 -1.27055e-23 2.2347e-18)
(-1.3136e-22 -4.51362e-23 2.86809e-11)
(3.54437e-23 -1.56048e-23 -1.56926e-19)
(-1.37368e-23 -1.55641e-23 -1.30406e-19)
(-2.31877e-23 -1.30152e-23 -1.06624e-20)
(1.83388e-22 -1.87932e-23 4.24273e-21)
(-1.7747e-22 -3.37672e-24 -3.79335e-22)
(6.4178e-23 -2.8315e-23 -6.81407e-22)
(1.81845e-25 -3.40449e-23 -3.30673e-23)
(-1.08947e-23 -1.37846e-23 2.75254e-22)
(2.59651e-23 -1.43039e-23 -3.02765e-23)
(-8.21867e-23 -1.36971e-23 -8.09354e-23)
(1.13953e-22 -3.57137e-23 -5.61962e-23)
(-6.08735e-23 -4.39454e-24 6.27878e-23)
(1.83485e-23 -3.65859e-24 -7.08779e-23)
(-1.22043e-23 -1.56763e-23 2.04508e-22)
(-1.55004e-23 -7.5083e-24 4.07089e-23)
(-2.43129e-19 -3.15416e-19 -1.34397e-09)
(-1.52138e-19 -8.47965e-20 -4.65205e-08)
(-6.40833e-19 4.01025e-19 -2.71651e-08)
(-4.47653e-19 7.73301e-19 4.93554e-08)
(3.04891e-19 1.782e-19 -3.38355e-08)
(1.38572e-19 -1.15229e-19 2.66054e-08)
(-8.81071e-20 -2.78923e-21 -1.64714e-08)
(-8.83019e-20 2.39175e-20 -7.32448e-09)
(4.32865e-20 -3.7139e-20 3.51129e-09)
(5.94368e-20 -6.42166e-21 2.76686e-09)
(-5.17798e-20 3.25379e-22 -4.70074e-09)
(-2.56687e-21 3.52082e-22 2.4025e-10)
(2.00148e-20 -4.93684e-21 2.57212e-09)
(-1.28622e-20 6.9312e-23 -2.69018e-09)
(-3.44358e-21 4.01199e-23 9.51128e-10)
(3.98853e-21 3.78871e-22 1.30849e-10)
(1.44679e-20 1.03679e-22 -4.57969e-10)
(-2.6457e-20 1.58768e-22 2.90896e-10)
(1.35001e-20 3.18473e-21 8.61056e-11)
(1.03483e-20 -1.89782e-22 -2.32994e-10)
(-1.57678e-20 1.24938e-22 4.52941e-11)
(-2.42515e-21 2.15899e-23 1.72906e-10)
(1.59706e-20 -7.87434e-21 2.95047e-11)
(-5.76641e-22 8.42964e-23 -1.94396e-10)
(-2.1806e-20 1.89542e-22 -1.15993e-11)
(1.64598e-20 1.99513e-21 1.98134e-10)
(1.45356e-21 -1.78294e-22 -1.03553e-10)
(-1.1409e-21 8.62816e-23 -1.59897e-10)
(-6.52067e-21 9.89755e-23 3.29148e-10)
(1.67753e-21 -5.44047e-23 -1.80639e-10)
(8.29568e-21 8.28844e-23 -7.05991e-11)
(-1.41915e-20 4.96393e-24 1.57457e-10)
(1.05259e-20 -3.44671e-23 -1.15132e-10)
(-2.49904e-22 4.84275e-23 -1.4337e-10)
(-3.80921e-21 -2.93186e-23 2.35257e-10)
(2.65881e-21 1.0102e-22 -3.6251e-10)
(3.2246e-23 -6.34301e-23 3.41944e-10)
(-3.34773e-21 -3.53829e-23 -1.39137e-10)
(-7.30946e-22 9.27412e-23 -1.3689e-10)
(8.2538e-21 -5.00729e-24 2.39441e-10)
(-1.09639e-20 -1.50093e-23 -9.99794e-11)
(7.2551e-21 3.83527e-22 1.11914e-10)
(1.31655e-21 1.44644e-23 -1.49859e-10)
(-4.13741e-21 -5.82643e-23 1.21119e-10)
(1.27587e-21 1.20891e-24 4.64941e-11)
(-3.55425e-21 -1.49555e-23 -2.19573e-10)
(6.55674e-21 1.89246e-23 1.8855e-10)
(-4.34131e-21 -2.91342e-23 2.73471e-12)
(1.18075e-21 1.83209e-23 -2.48656e-10)
(9.95325e-22 -3.89663e-23 2.54738e-10)
(-2.19528e-21 3.18065e-24 -1.34389e-10)
(2.98436e-21 -1.21027e-23 5.27366e-11)
(-2.11224e-21 -4.00563e-23 -1.92408e-10)
(-2.18671e-21 1.21394e-22 2.4827e-10)
(2.69005e-21 -1.53849e-24 1.43922e-11)
(4.29257e-21 4.84831e-24 1.16853e-11)
(-6.32336e-21 -4.311e-24 -1.12656e-11)
(-2.67807e-21 7.06582e-24 7.83686e-12)
(4.29606e-21 5.02436e-24 -1.55445e-11)
(2.81858e-21 -8.88592e-24 7.2802e-11)
(4.4085e-22 -6.66274e-24 -1.33603e-11)
(-4.58502e-21 1.11305e-24 -1.05353e-10)
(6.0338e-23 4.35182e-24 6.54204e-11)
(1.16509e-21 -7.33232e-25 -7.41789e-12)
(2.11505e-21 -7.14257e-25 -9.6013e-12)
(-3.31844e-21 -2.99345e-25 4.13514e-12)
(-2.26403e-21 2.21911e-24 -8.88995e-13)
(2.8538e-21 5.42631e-25 -1.01943e-14)
(-9.09574e-22 4.61139e-25 -2.099e-13)
(-1.61229e-22 4.83445e-26 -3.42583e-14)
(-2.55347e-24 -7.94667e-24 -1.37487e-23)
(-2.73996e-19 7.25772e-19 -5.16437e-08)
(1.16973e-18 -2.77668e-19 6.8999e-09)
(-9.73e-19 2.96854e-20 8.71933e-09)
(1.46491e-20 -3.85549e-19 -4.78762e-08)
(6.4012e-19 -1.75232e-19 3.63462e-08)
(-3.62129e-19 -2.87423e-20 -2.22928e-08)
(-4.39097e-20 -4.04045e-20 7.58839e-09)
(1.3082e-19 1.76012e-20 -2.26917e-09)
(-2.0035e-20 -2.78909e-20 -1.93548e-09)
(-8.54818e-21 -4.69347e-21 1.95255e-09)
(-2.62197e-20 8.92965e-23 -1.18164e-09)
(4.50417e-20 -3.34635e-21 5.79988e-11)
(1.18697e-20 -8.6228e-21 3.9443e-10)
(-8.36037e-20 -3.59537e-21 -1.44899e-09)
(4.89718e-20 1.91206e-22 1.88365e-09)
(2.98511e-20 1.26763e-22 -9.60339e-10)
(-3.16465e-20 1.22047e-22 4.0655e-11)
(-9.17756e-21 -6.14986e-24 6.57594e-11)
(3.10002e-20 -1.21732e-22 4.62503e-10)
(-6.03249e-22 6.13542e-23 -4.87767e-10)
(-5.66993e-20 6.41696e-23 -4.42356e-10)
(3.42144e-20 -2.31159e-23 6.94865e-10)
(3.5039e-20 -8.65667e-21 -1.53519e-10)
(-3.19315e-20 1.53091e-22 -3.5501e-10)
(-7.38561e-21 -1.00743e-22 3.28173e-10)
(3.9645e-21 -8.71686e-23 -1.33747e-11)
(1.52461e-20 4.37894e-24 -1.43256e-10)
(-1.29695e-20 5.98183e-23 -1.68029e-10)
(-5.15532e-21 -1.08512e-22 5.01896e-10)
(8.32006e-21 7.41291e-24 -1.79052e-10)
(1.30549e-21 -2.50645e-23 -3.36282e-10)
(7.39262e-21 -2.62085e-23 3.72442e-10)
(-1.10087e-20 -2.60664e-23 -2.35083e-10)
(-9.97581e-22 4.24278e-23 1.69815e-10)
(-5.02448e-22 -1.34144e-23 8.7768e-11)
(2.124e-21 -7.17424e-23 -2.9915e-10)
(4.46464e-21 -6.6888e-23 1.3895e-10)
(-3.79644e-21 -9.11389e-24 4.78561e-11)
(-3.39433e-21 -2.03291e-23 1.70898e-12)
(1.20923e-20 2.07213e-23 -3.92534e-11)
(-4.95999e-21 -1.39419e-23 -1.9952e-11)
(-1.78258e-20 -1.08273e-22 3.78765e-11)
(1.71832e-20 -6.96798e-23 6.26001e-12)
(2.02126e-21 2.14006e-24 -2.72031e-11)
(-8.63507e-21 -4.03465e-23 1.60614e-11)
(4.143e-21 -4.81734e-23 -6.23101e-11)
(4.1583e-21 1.32833e-23 7.42681e-11)
(-6.83234e-21 2.56323e-24 7.10943e-11)
(-1.30236e-21 -1.01194e-22 -2.40977e-10)
(6.96247e-21 2.2716e-25 2.05216e-10)
(-5.21752e-21 -5.11406e-24 -9.34271e-11)
(-1.68062e-22 -1.7172e-23 1.0775e-11)
(5.48349e-21 -2.98157e-23 9.65883e-11)
(-3.87074e-21 -9.44948e-24 -1.50473e-10)
(-4.05771e-21 1.92616e-24 1.14462e-10)
(7.27227e-21 -1.34949e-23 8.55722e-12)
(-3.015e-22 6.88404e-24 -7.77464e-11)
(-4.40583e-21 -1.54899e-24 3.49031e-11)
(-9.59231e-22 -1.01425e-23 1.31205e-11)
(6.60237e-21 -3.22775e-23 -5.25989e-11)
(-6.60953e-21 -2.69915e-23 2.84251e-11)
(1.06935e-21 4.14121e-25 3.34504e-12)
(3.66217e-21 1.63462e-24 3.68456e-12)
(-2.82817e-21 8.15163e-26 -1.01139e-13)
(3.93347e-21 1.29207e-24 -8.68511e-13)
(-6.77596e-21 -4.44557e-24 6.8215e-13)
(4.56702e-21 -7.04316e-23 -1.68254e-13)
(3.64037e-23 -2.97287e-23 8.59335e-14)
(-2.31545e-21 -7.80202e-24 1.90732e-13)
(1.61759e-21 2.14248e-24 1.45218e-13)
(-6.74658e-22 -3.71617e-25 6.53645e-15)
(1.58985e-19 -7.32445e-19 -2.01735e-08)
(7.06443e-20 3.66362e-19 -4.4004e-08)
(-2.62212e-20 2.87304e-19 -8.57267e-09)
(-9.05995e-20 -2.77505e-19 1.84615e-08)
(-4.44821e-21 5.58096e-20 -2.45279e-08)
(-9.20012e-21 1.36206e-20 1.36864e-08)
(-1.47291e-20 -8.28488e-20 -1.02901e-08)
(2.41954e-20 -1.86049e-20 4.36734e-09)
(2.42739e-21 4.49538e-20 -3.03427e-09)
(-1.34212e-20 4.08471e-21 1.70143e-09)
(4.43116e-21 4.00822e-22 -9.45775e-10)
(-3.00539e-21 -1.4691e-21 -1.06129e-09)
(7.37192e-22 -1.1275e-21 1.24967e-09)
(3.11318e-22 -4.3086e-21 -1.38452e-09)
(1.1215e-21 3.85667e-22 1.28523e-09)
(-1.12997e-21 2.92132e-22 -4.53344e-10)
(5.50924e-23 -6.65385e-23 -1.07622e-10)
(1.55034e-21 2.37804e-25 -2.4284e-11)
(-1.34182e-21 1.11892e-22 2.65679e-11)
(-6.40115e-22 6.48969e-23 -3.86012e-12)
(1.05853e-21 2.44813e-22 -9.7279e-12)
(3.59982e-22 -1.12455e-22 -2.96431e-11)
(-7.38823e-22 1.93323e-22 5.18704e-11)
(3.88553e-23 6.00775e-24 -4.1728e-11)
(3.98188e-22 5.90015e-23 2.046e-11)
(-9.33643e-22 -1.89118e-23 -6.85581e-12)
(1.15352e-21 1.03599e-22 2.4493e-12)
(-6.299e-22 9.53424e-24 -1.65901e-11)
(2.66518e-22 1.23225e-22 1.40762e-11)
(1.88404e-22 2.90938e-23 2.15298e-12)
(-5.40834e-22 9.9182e-23 -2.524e-11)
(2.72175e-22 1.06912e-22 2.22835e-11)
(-6.44275e-22 4.16695e-23 -1.72111e-12)
(1.25371e-21 1.34523e-22 -4.38924e-12)
(-7.20884e-22 2.9905e-22 1.36278e-12)
(-3.80568e-22 1.85373e-22 6.2674e-13)
(7.26164e-22 1.42882e-22 -2.62054e-12)
(2.6115e-22 3.54704e-23 2.86879e-12)
(-1.13355e-21 1.00971e-22 -3.25361e-14)
(2.58561e-22 4.99119e-23 2.30728e-12)
(1.45411e-21 1.04507e-22 -1.66209e-11)
(-1.36233e-21 1.46166e-22 2.77776e-11)
(4.60074e-22 8.44534e-23 -3.02617e-11)
(-2.07147e-22 1.93121e-22 2.79258e-11)
(4.24797e-22 1.02401e-22 -2.66418e-11)
(-4.52474e-23 1.76626e-22 2.4861e-11)
(-9.43468e-22 5.12337e-23 -2.893e-11)
(1.16117e-21 4.74672e-23 3.54043e-11)
(-2.07554e-22 1.13912e-22 -3.71926e-11)
(-5.24416e-22 1.90884e-22 3.3902e-11)
(9.81412e-23 1.01576e-22 -2.08729e-11)
(8.28699e-22 2.38717e-22 -1.62501e-12)
(-6.85571e-22 8.94008e-23 3.39524e-11)
(-2.78524e-22 1.13894e-22 -5.57678e-11)
(4.5648e-22 2.49215e-24 6.02606e-11)
(9.51857e-23 1.57556e-22 -4.5742e-11)
(-1.61019e-22 1.44616e-22 2.51507e-11)
(-3.4407e-22 1.46105e-22 -1.63352e-11)
(4.6761e-22 1.70029e-22 5.24263e-13)
(-2.29632e-22 9.51799e-23 1.79607e-11)
(1.98463e-22 1.17597e-22 -3.1121e-11)
(-1.35219e-22 8.45045e-24 1.31408e-11)
(2.37204e-23 5.69239e-24 4.12562e-12)
(3.45408e-24 1.92569e-23 1.73124e-12)
(-1.03673e-22 2.8672e-23 -2.17855e-12)
(1.50696e-22 6.99727e-24 -1.33065e-12)
(1.68326e-23 -5.55515e-23 -4.25982e-13)
(7.12592e-23 -2.65011e-23 -1.44056e-12)
(-3.45067e-22 -7.80178e-24 -5.20427e-14)
(1.10192e-22 2.30149e-24 3.34737e-14)
(4.22434e-23 -3.71915e-25 -3.46972e-15)
(-1.05509e-19 1.64998e-20 -8.48703e-09)
(-4.84911e-20 -3.02828e-19 6.24072e-09)
(-7.65404e-21 -1.06253e-19 3.17323e-09)
(-4.98017e-20 1.5363e-19 -8.95995e-09)
(-5.06486e-20 -2.83963e-20 1.01601e-08)
(-1.35518e-21 -3.80112e-21 -4.27294e-09)
(5.07232e-21 1.34766e-21 3.89549e-09)
(-5.46763e-21 7.17599e-21 -1.03816e-09)
(-3.04191e-21 -1.75471e-20 6.89083e-10)
(6.23356e-21 4.19426e-21 -1.59436e-09)
(-1.67214e-21 3.93615e-22 6.89663e-10)
(4.4136e-23 1.90673e-21 3.03587e-10)
(-2.56706e-22 -7.38009e-22 -3.23598e-10)
(2.05731e-22 -1.96956e-22 5.75917e-10)
(-2.23998e-22 1.9987e-23 -7.21668e-10)
(1.37437e-22 -7.42747e-23 6.06955e-10)
(3.15026e-22 -2.15457e-22 -3.60331e-10)
(-1.26537e-22 -6.19147e-24 4.09544e-10)
(-2.61703e-22 -4.51495e-24 -2.85302e-10)
(1.34947e-22 -7.32115e-23 7.25339e-11)
(-1.30534e-22 8.45328e-24 -3.25012e-11)
(-1.37006e-23 -1.56128e-22 1.92719e-11)
(-7.61223e-23 2.03083e-22 -2.18347e-11)
(4.28735e-22 -1.43577e-22 1.87607e-11)
(1.37641e-23 8.22348e-23 -1.77694e-11)
(-4.21174e-22 -6.79504e-23 9.08009e-12)
(1.32926e-22 9.69438e-23 -3.47165e-12)
(-3.01231e-22 -3.07079e-22 -3.8919e-12)
(2.0562e-22 2.83774e-22 2.87018e-12)
(1.87689e-22 -1.87819e-22 -3.07271e-12)
(-1.42221e-22 -7.82338e-24 -1.42019e-12)
(4.53635e-22 -9.05534e-23 5.47113e-12)
(-4.60756e-22 4.72267e-23 1.23781e-13)
(-1.86695e-22 9.93731e-24 -6.54518e-12)
(1.63614e-22 2.07354e-22 5.9845e-12)
(5.36041e-24 3.16294e-23 -7.01395e-12)
(3.06319e-23 1.84399e-22 7.15175e-12)
(1.67949e-23 -1.8149e-22 -4.57026e-12)
(3.14421e-22 1.02571e-22 4.60548e-12)
(-3.29745e-22 -2.65036e-23 -4.43124e-12)
(-3.2837e-23 2.48836e-23 -1.79295e-13)
(9.08508e-23 -7.30225e-23 -1.37106e-12)
(-1.51826e-22 1.51807e-22 6.2604e-12)
(2.05162e-22 -6.54708e-23 -8.4785e-12)
(-6.6024e-24 1.31817e-22 1.20577e-11)
(6.49987e-23 -1.45479e-23 -1.93632e-11)
(-3.5415e-23 3.45107e-23 2.59126e-11)
(-9.06523e-23 -2.19561e-23 -2.86745e-11)
(8.37052e-24 1.65325e-22 3.15661e-11)
(-1.31818e-23 -2.99755e-23 -3.66426e-11)
(9.58465e-23 8.09133e-23 4.31343e-11)
(-1.72598e-22 1.67466e-23 -5.39683e-11)
(3.04446e-22 7.87425e-23 5.85837e-11)
(-2.60785e-22 -2.15168e-23 -4.02661e-11)
(1.29936e-22 -7.9726e-24 1.96932e-11)
(1.73983e-22 3.63647e-23 -6.03228e-13)
(-3.43041e-22 -1.40682e-23 -2.48988e-11)
(1.17336e-22 1.04434e-22 3.53918e-11)
(-1.07423e-22 -4.96924e-23 -4.2212e-11)
(1.74083e-22 8.68433e-23 4.44312e-11)
(1.86499e-23 -6.56615e-24 -8.55389e-12)
(3.66765e-24 -1.89006e-23 -2.8529e-11)
(-6.3561e-23 -3.60642e-23 2.08431e-11)
(-1.10825e-22 -4.07798e-23 -2.23155e-12)
(2.14066e-22 -1.03375e-22 1.87545e-12)
(-1.85328e-22 -1.33897e-22 -1.152e-11)
(-5.09584e-23 -5.15207e-23 2.37465e-12)
(3.50899e-22 -1.46503e-23 -9.66733e-13)
(-1.45885e-22 -1.05551e-23 1.44448e-12)
(-1.19239e-23 -2.03e-23 -7.30391e-14)
(9.98166e-23 1.09602e-24 -6.68313e-12)
(2.36982e-20 8.28318e-20 6.29686e-08)
(-5.76425e-21 1.15514e-19 3.20314e-08)
(-8.33655e-22 6.53554e-20 6.90035e-09)
(-1.31167e-21 -3.07244e-20 7.95643e-09)
(-5.39563e-21 1.74277e-20 -8.84089e-10)
(-2.96883e-21 1.80163e-21 1.50159e-09)
(-2.42501e-21 8.81809e-22 -1.364e-09)
(8.99906e-22 -3.67437e-21 3.68787e-10)
(7.58105e-22 8.13991e-21 -6.69605e-10)
(-2.27073e-21 3.25067e-22 1.64747e-10)
(4.52372e-22 -8.04521e-23 3.56224e-10)
(-4.82858e-23 2.41073e-22 -6.68826e-10)
(2.54999e-22 1.85805e-22 3.96659e-10)
(-3.77361e-22 -1.1172e-22 -2.26692e-10)
(6.9452e-23 -9.98459e-23 1.73459e-10)
(5.62394e-23 -2.33686e-22 -1.93672e-10)
(1.1212e-22 -4.14976e-22 2.0545e-10)
(-2.59485e-23 4.48613e-23 -6.06347e-11)
(-9.40303e-23 2.021e-22 1.36142e-10)
(4.09689e-23 -5.78748e-23 -1.63316e-10)
(-1.6013e-22 -2.02863e-22 4.23714e-11)
(1.19861e-22 -1.88249e-22 -1.71781e-11)
(5.42889e-23 -5.40117e-23 9.60708e-12)
(-4.32526e-23 -1.4364e-22 -9.06413e-12)
(8.89756e-23 -1.63227e-23 3.93681e-12)
(-1.33717e-22 -5.45173e-23 -5.4442e-12)
(-2.26398e-23 -4.05623e-23 6.25523e-12)
(6.59477e-23 -2.93092e-22 -1.06493e-11)
(1.36168e-23 -4.18236e-23 6.69632e-12)
(-5.65813e-23 -1.29586e-22 -5.11755e-12)
(3.81194e-23 -2.24432e-22 2.66989e-12)
(4.02449e-23 -7.98767e-23 -3.02668e-12)
(-1.03543e-22 -4.03987e-23 8.41752e-12)
(7.38075e-23 -1.50366e-22 -1.17962e-11)
(-8.23564e-23 -1.06533e-22 9.79955e-12)
(5.79023e-23 -3.34754e-22 -9.57927e-12)
(6.22562e-23 -3.9163e-23 1.12007e-11)
(-1.1377e-22 -2.00457e-22 -6.79009e-12)
(1.64874e-22 -1.74902e-23 5.27419e-12)
(-6.78008e-23 -6.98333e-23 -5.28046e-12)
(-1.42524e-22 -8.51579e-23 1.2586e-12)
(1.37696e-22 -2.2925e-22 -2.46669e-12)
(-8.86363e-23 -4.6857e-23 5.49812e-12)
(4.82026e-23 -1.88592e-22 -8.55003e-12)
(6.65575e-23 -2.38133e-23 1.56084e-11)
(-1.13087e-22 -1.6151e-22 -2.22378e-11)
(1.24049e-22 -9.38281e-24 1.96852e-11)
(-4.18497e-23 -6.44566e-23 -1.44058e-11)
(-4.11917e-23 -5.55988e-23 1.1428e-11)
(5.76351e-23 -1.58524e-22 -1.09356e-11)
(-1.15309e-22 -5.05696e-23 4.63368e-12)
(8.63061e-23 -2.47558e-22 -5.91943e-13)
(-1.42111e-23 -4.39189e-23 1.55295e-12)
(5.40191e-23 -1.41571e-22 1.40266e-11)
(-4.75813e-23 -5.4015e-24 -2.87451e-11)
(-3.87302e-23 -1.43069e-22 3.0678e-11)
(9.93208e-23 -1.10468e-22 -3.50518e-11)
(-1.14203e-22 -6.1511e-23 2.96575e-11)
(3.67849e-23 -1.77492e-22 -2.61356e-11)
(4.4547e-23 -6.3343e-23 1.79338e-11)
(-1.91711e-23 -1.39173e-22 8.59323e-12)
(1.1165e-23 -3.57828e-23 -3.27397e-11)
(-3.03189e-24 -2.72383e-23 2.44664e-11)
(-1.7556e-23 -5.30475e-23 -1.55412e-12)
(-9.54512e-24 -1.13666e-22 1.775e-14)
(1.96303e-24 -1.26546e-22 -1.26876e-11)
(2.04191e-23 -6.43931e-23 1.35763e-11)
(2.41227e-23 -1.8974e-23 -1.12452e-11)
(-2.44094e-23 -8.99257e-24 4.81885e-12)
(-1.70652e-23 1.64405e-22 -7.09473e-12)
(8.94313e-24 -9.18233e-24 -2.23543e-11)
(-4.6228e-19 -9.16256e-19 -2.14992e-08)
(-3.01283e-19 -2.56395e-19 8.55271e-09)
(8.22912e-20 -8.37749e-21 -1.79823e-09)
(-2.04112e-20 -7.27481e-21 -1.36279e-09)
(1.31975e-22 -4.73593e-21 2.46723e-09)
(-2.24594e-22 -8.55386e-22 -1.35965e-09)
(8.21626e-22 -1.17793e-21 1.36785e-09)
(-1.39291e-21 2.01531e-21 -3.0904e-10)
(-6.89863e-22 -2.91438e-21 4.64455e-10)
(2.83658e-21 5.4009e-22 -4.38803e-10)
(-2.33273e-21 -1.40814e-23 2.94848e-10)
(1.08887e-21 -5.23216e-24 1.08549e-10)
(8.01806e-24 -1.94256e-24 -3.53036e-10)
(-4.1716e-22 7.7132e-23 2.64422e-10)
(8.07159e-23 8.94264e-23 -1.16258e-10)
(4.70104e-23 4.91666e-23 8.31966e-11)
(8.43806e-22 -2.04057e-22 -8.73358e-11)
(-1.52303e-21 2.12824e-23 1.18179e-10)
(7.30834e-22 3.08689e-22 -5.68111e-11)
(2.74686e-22 7.06282e-23 1.33201e-10)
(-2.72767e-22 7.26338e-23 -2.02994e-11)
(-1.51891e-22 -6.84418e-25 -3.48997e-11)
(2.12001e-22 5.36136e-23 -1.06624e-11)
(6.18117e-22 5.04874e-23 5.27804e-12)
(-1.44189e-21 -7.89748e-24 -1.18291e-11)
(7.76545e-22 2.67579e-23 7.68589e-12)
(1.00464e-22 -2.31917e-23 -2.01221e-12)
(2.89073e-22 6.04702e-23 -3.88086e-12)
(-3.44532e-22 -6.07412e-24 -1.71515e-12)
(-1.80268e-22 8.51813e-23 4.7392e-12)
(2.09855e-22 2.76804e-23 -9.50896e-12)
(-5.60042e-22 2.1673e-23 8.4988e-12)
(1.04157e-21 -5.11562e-23 -2.89268e-12)
(-8.05263e-22 -5.20767e-24 5.17071e-12)
(3.37455e-22 2.66026e-23 -9.36996e-12)
(1.42144e-22 3.1501e-23 1.32112e-11)
(-2.36599e-22 -1.09431e-23 -1.52875e-11)
(-7.49536e-23 2.01042e-23 1.23762e-11)
(-2.23476e-22 1.82108e-24 -6.04837e-12)
(8.15975e-22 1.98081e-23 2.5571e-12)
(-8.51987e-22 1.84584e-24 -1.97921e-12)
(6.22115e-22 9.8669e-23 -2.0376e-12)
(-2.45245e-22 -4.88793e-24 -2.72486e-12)
(-8.6467e-23 8.70611e-23 6.65349e-12)
(1.84844e-22 2.63877e-23 -6.31897e-12)
(-4.40678e-22 8.82872e-23 1.00705e-11)
(4.92487e-22 1.69961e-24 -1.34492e-11)
(-2.47471e-22 -4.38087e-24 8.80065e-12)
(3.1985e-22 1.385e-24 -1.50866e-12)
(-3.47335e-22 4.81292e-23 3.06767e-12)
(5.92529e-23 9.62728e-24 -1.43863e-11)
(6.91043e-23 1.56012e-23 1.49948e-11)
(9.0727e-23 -4.53777e-24 -1.11111e-11)
(-9.71267e-23 1.78993e-23 1.27037e-11)
(-3.0135e-22 -1.50489e-23 -6.86489e-12)
(4.85021e-22 3.24544e-23 -3.5e-13)
(-3.91274e-22 1.72776e-23 1.36407e-12)
(4.71772e-22 2.34666e-23 -6.58106e-12)
(-3.39547e-22 6.0522e-23 1.29405e-11)
(-7.44855e-23 4.96958e-23 -1.42993e-11)
(3.44046e-22 1.74069e-23 4.64979e-12)
(-5.13944e-22 1.59827e-24 -4.75236e-12)
(5.10713e-22 6.63833e-24 3.60126e-12)
(-2.26339e-22 1.23443e-23 8.69298e-12)
(1.14392e-22 1.60258e-23 -7.51336e-12)
(-1.92924e-22 5.61272e-23 -3.27551e-12)
(9.19926e-23 8.0366e-23 8.83487e-12)
(-5.68161e-23 4.22824e-23 -5.77696e-12)
(-1.38236e-22 -1.58941e-24 -9.82751e-13)
(2.20721e-22 -6.98627e-23 1.34904e-12)
(-1.34747e-22 -6.76722e-24 -1.4082e-11)
(1.9667e-21 1.69748e-18 3.77766e-09)
(-1.89542e-20 4.21737e-19 -9.22529e-09)
(-5.20194e-21 -4.06629e-20 2.31003e-09)
(1.11001e-20 2.41022e-20 1.55506e-09)
(-2.90982e-21 -1.08341e-21 -2.52252e-09)
(1.0428e-21 2.10236e-22 9.44653e-10)
(-1.58914e-21 7.14721e-22 -7.6395e-10)
(1.91844e-22 -1.10179e-21 6.27099e-10)
(1.13528e-22 4.0002e-22 -8.51312e-10)
(-3.16533e-22 3.99087e-22 5.02466e-10)
(4.30585e-23 -1.55533e-23 -2.97466e-10)
(-2.96458e-23 -4.62587e-22 -7.33612e-11)
(1.18417e-22 2.38231e-22 -1.81603e-11)
(-1.91447e-22 -6.29273e-23 1.03587e-10)
(-2.86163e-23 -1.70405e-22 1.14342e-10)
(1.45092e-22 -1.05171e-22 -1.53384e-10)
(-4.03897e-23 1.42527e-23 2.16887e-10)
(1.95414e-23 2.07648e-23 -1.88561e-10)
(2.29711e-23 -6.30299e-24 1.67827e-10)
(2.43996e-23 8.93954e-23 -1.94245e-10)
(-1.51735e-22 -1.13608e-22 1.93571e-10)
(7.46694e-23 -9.46063e-23 -1.79203e-10)
(1.1513e-22 -7.02041e-23 1.05785e-10)
(-1.24534e-22 -3.1782e-23 -3.48993e-11)
(2.63555e-23 -1.57156e-23 7.76546e-12)
(-2.08994e-23 -3.85471e-23 -4.43026e-12)
(1.01652e-22 4.33767e-24 4.83022e-12)
(-1.12664e-22 -1.21028e-22 -7.94172e-12)
(-1.20387e-23 -1.77708e-23 5.38722e-12)
(1.11178e-22 -8.53368e-23 -4.7688e-12)
(-1.26734e-22 -2.66908e-23 2.9989e-12)
(1.06551e-22 1.39186e-23 -7.45315e-13)
(-6.69553e-23 -1.0453e-23 -7.74324e-14)
(5.17209e-23 1.29268e-24 -1.81134e-13)
(-3.41455e-23 -1.23952e-22 2.22307e-12)
(-2.32417e-23 -4.00469e-23 -5.82245e-12)
(8.83e-23 -6.39046e-23 4.1789e-12)
(-1.24818e-22 1.1308e-24 -2.00251e-12)
(9.88935e-23 -4.26476e-23 1.06972e-12)
(-7.56361e-24 3.73918e-24 -6.13135e-13)
(-4.78873e-23 1.09414e-23 -1.22243e-13)
(9.53816e-24 -9.31573e-23 -1.021e-13)
(1.50671e-23 -2.97002e-23 -2.66622e-12)
(-2.7866e-23 -2.17699e-23 2.84503e-12)
(-8.84922e-24 2.16353e-23 -1.65871e-12)
(5.82938e-23 1.21306e-23 -2.71895e-13)
(8.66818e-24 5.14821e-24 5.80158e-12)
(-6.99969e-23 7.99641e-26 -1.09761e-11)
(-1.88605e-25 9.60289e-24 1.14325e-11)
(1.35979e-22 -4.09829e-23 -8.72654e-12)
(-1.44224e-22 -6.12968e-23 6.15718e-12)
(-1.02666e-23 -1.73289e-23 -1.00032e-11)
(1.26605e-22 -2.22278e-23 1.29581e-11)
(-8.03901e-23 -6.92189e-24 -1.24871e-11)
(-3.98897e-23 1.17608e-23 1.73402e-11)
(9.3264e-23 -4.66875e-23 -1.7694e-11)
(2.33493e-23 -1.93135e-23 1.12823e-11)
(-1.2847e-22 -4.43982e-23 -1.19867e-11)
(4.41697e-23 -2.69661e-23 9.7093e-12)
(6.1712e-23 -4.3865e-23 -7.96357e-12)
(-5.53335e-23 -1.80029e-23 5.57584e-12)
(6.99644e-25 -4.441e-24 2.4132e-12)
(2.82987e-23 -1.57801e-23 -9.45515e-12)
(1.42812e-25 -2.56911e-23 9.1937e-12)
(-1.45607e-23 -3.57843e-23 -3.43742e-13)
(-7.18434e-24 -4.11693e-23 -3.27124e-12)
(-5.06435e-24 -4.71522e-23 -2.86668e-13)
(4.74363e-23 -3.0129e-23 4.16381e-12)
(1.50075e-23 -4.70838e-24 2.76429e-12)
(-2.09654e-24 -2.31093e-22 -1.108e-11)
(3.8757e-24 4.73078e-25 -1.4857e-11)
(4.23285e-19 -1.67493e-19 5.99345e-09)
(4.63961e-19 -5.30042e-20 2.98313e-09)
(-3.4045e-21 3.19186e-20 -5.56831e-10)
(1.35834e-21 -6.63923e-21 -2.28063e-10)
(-5.61563e-22 2.13296e-21 1.75291e-09)
(-1.63481e-23 3.14396e-22 2.76513e-10)
(7.32784e-23 3.76005e-22 1.76633e-10)
(1.38828e-22 1.65524e-22 -6.35058e-10)
(1.90186e-23 6.09817e-22 3.17468e-10)
(3.13597e-22 -5.11906e-23 -6.79664e-10)
(-1.33671e-22 -9.80636e-24 -7.00655e-11)
(1.70842e-23 5.01949e-23 1.66456e-12)
(-2.36986e-23 1.56905e-23 -1.68484e-10)
(2.45051e-23 7.6151e-23 3.57022e-10)
(-3.40768e-23 8.82273e-23 -2.21486e-10)
(-5.92088e-23 2.13111e-22 1.73424e-10)
(1.19482e-22 1.33923e-22 -1.4497e-10)
(3.00638e-23 4.4568e-23 1.44604e-10)
(-7.22939e-23 6.28033e-23 -1.00529e-10)
(-3.52092e-24 7.00077e-23 1.11367e-10)
(-2.24718e-23 2.09616e-22 -1.93384e-10)
(1.95027e-23 1.27168e-22 1.0668e-10)
(-4.92451e-23 1.92482e-22 -6.59363e-11)
(7.52946e-23 1.06978e-22 1.1698e-11)
(5.90296e-23 8.08744e-23 -1.72611e-11)
(-7.21741e-23 3.29307e-23 6.74104e-12)
(-2.37814e-23 7.77787e-23 -5.58502e-12)
(-5.03707e-23 3.57865e-22 1.63995e-12)
(8.06933e-23 1.90779e-22 -3.6836e-12)
(-5.99145e-23 1.55769e-22 5.11397e-12)
(7.41293e-23 1.25339e-22 -7.16652e-12)
(-5.42061e-24 1.57109e-22 8.33113e-12)
(-2.16837e-23 6.96794e-25 -8.47942e-12)
(2.33074e-23 8.48265e-23 7.85908e-12)
(-1.01331e-22 3.50546e-22 -6.64289e-12)
(7.2433e-23 2.25486e-22 4.75945e-12)
(-3.63464e-23 2.24309e-22 -6.85965e-12)
(7.28139e-23 2.85906e-22 9.13026e-12)
(-4.4921e-23 9.78403e-23 -1.09704e-11)
(4.45648e-23 1.05269e-22 1.0616e-11)
(2.30553e-23 1.60383e-23 -9.38319e-12)
(-1.44921e-22 3.50156e-22 8.26777e-12)
(1.29729e-22 1.61127e-22 -9.57307e-12)
(-2.02332e-23 1.68262e-22 9.9226e-12)
(3.08282e-23 -1.56353e-23 -9.89955e-12)
(-5.33795e-23 1.5598e-22 9.28805e-12)
(2.31471e-23 2.67694e-23 -4.4859e-12)
(5.10871e-23 3.31062e-23 -1.01727e-12)
(-8.50234e-23 2.45898e-22 2.06285e-12)
(-6.55208e-24 1.36161e-22 9.27481e-13)
(-9.75674e-25 2.23119e-22 -4.19232e-12)
(5.81555e-23 1.46869e-22 6.34525e-13)
(-6.40006e-23 2.51074e-22 1.01497e-12)
(7.6707e-23 7.24993e-23 -2.74924e-13)
(-8.00882e-24 1.61104e-23 1.48079e-12)
(-3.92748e-23 1.30977e-22 -2.25278e-12)
(1.60676e-23 1.16841e-22 -6.20362e-13)
(-2.49146e-23 1.5963e-22 1.59556e-12)
(6.32812e-24 1.45361e-22 -6.43667e-12)
(-3.29143e-24 1.49286e-22 8.84038e-12)
(7.15611e-23 6.89641e-23 -6.17933e-12)
(2.44164e-23 2.17612e-23 9.9636e-12)
(-1.86298e-23 1.17377e-22 -2.00523e-11)
(-3.18262e-23 1.01892e-22 -1.48527e-11)
(-2.42135e-23 1.80556e-22 -9.60977e-12)
(-9.15441e-24 1.44362e-22 -1.21614e-11)
(8.21547e-24 1.4693e-22 -2.18204e-11)
(6.43979e-24 7.38128e-23 -1.71886e-11)
(8.51827e-25 1.58318e-23 -1.29979e-11)
(1.95959e-24 6.35346e-23 -7.46046e-12)
(3.00871e-24 6.75341e-24 -9.37066e-12)
(5.68917e-23 5.1039e-25 1.78058e-12)
(8.21052e-23 -7.40937e-24 -2.80815e-12)
(-9.02714e-23 1.96844e-23 2.02442e-12)
(2.16512e-22 -1.94017e-23 -1.83251e-12)