/*--------------------------------*- C++ -*----------------------------------*\
  =========                 |
  \\      /  F ield         | OpenFOAM: The Open Source CFD Toolbox
   \\    /   O peration     | Website:  https://openfoam.org
    \\  /    A nd           | Version:  8
     \\/     M anipulation  |
\*---------------------------------------------------------------------------*/
FoamFile
{
    version     2.0;
    format      ascii;
    class       vectorFieldField;
    location    "0/lagrangian/kinematicCloud";
    object      collisionRecordsWallData;
}
// * * * * * * * * * * * * * * * * * * * * * * * * * * * * * * * * * * * * * //


3300
(
0()
0()
0()
0()
0()
0()
0()
0()
0()
0()
0()
0()
0()
0()
0()
0()
0()
0()
0()
0()
0()
0()
0()
0()
0()
0()
0()
0()
0()
0()
0()
0()
0()
0()
1((0 0 0))
1((0 0 0))
0()
0()
1((0 0 0))
0()
0()
0()
1((0 0 0))
0()
0()
1((0 0 0))
0()
0()
1((0 0 0))
1((0 0 0))
0()
1((0 0 0))
0()
0()
1((0 0 0))
0()
0()
1((0 0 0))
1((0 0 0))
0()
0()
1((0 0 0))
0()
0()
0()
1((0 0 0))
0()
0()
1((0 0 0))
0()
0()
0()
1((0 0 0))
0()
0()
1((0 0 0))
0()
0()
1((0 0 0))
1((0 0 0))
0()
1((0 0 0))
1((0 0 0))
0()
1((0 0 0))
0()
1((0 0 0))
0()
0()
1((0 0 0))
0()
1((0 0 0))
0()
1((0 0 0))
0()
0()
1((0 0 0))
0()
1((0 0 0))
0()
1((0 0 0))
0()
1((0 0 0))
0()
0()
0()
1((0 0 0))
1((0 0 0))
0()
1((0 0 0))
1((0 0 0))
0()
0()
1((0 0 0))
1((0 0 0))
0()
0()
1((0 0 0))
0()
0()
0()
1((0 0 0))
1((0 0 0))
0()
0()
1((0 0 0))
0()
0()
1((0 0 0))
1((0 0 0))
0()
0()
0()
0()
0()
0()
1((0 0 0))
1((0 0 0))
0()
0()
0()
0()
0()
0()
1((0 0 0))
0()
0()
0()
0()
0()
0()
0()
0()
0()
0()
0()
0()
0()
0()
0()
0()
0()
0()
1((0 0 0))
1((0 0 0))
0()
0()
0()
0()
0()
0()
0()
0()
0()
0()
0()
1((0 0 0))
0()
1((0 0 0))
0()
0()
1((0 0 0))
1((0 0 0))
0()
0()
1((0 0 0))
1((0 0 0))
0()
0()
0()
0()
0()
1((0 0 0))
0()
0()
1((0 0 0))
0()
0()
0()
1((0 0 0))
0()
0()
0()
0()
0()
0()
0()
0()
0()
0()
0()
0()
0()
0()
0()
0()
0()
0()
0()
0()
0()
0()
0()
0()
0()
0()
0()
0()
0()
0()
0()
0()
0()
0()
0()
0()
1((0 0 0))
1((0 0 0))
0()
0()
0()
0()
0()
0()
0()
0()
0()
0()
1((0 0 0))
1((0 0 0))
0()
1((0 0 0))
1((0 0 0))
0()
0()
1((0 0 0))
1((0 0 0))
0()
0()
1((0 0 0))
0()
0()
1((0 0 0))
1((0 0 0))
0()
1((0 0 0))
1((0 0 0))
0()
0()
1((0 0 0))
1((0 0 0))
0()
0()
0()
1((0 0 0))
0()
0()
0()
1((0 0 0))
1((0 0 0))
0()
0()
0()
0()
0()
0()
1((0 0 0))
1((0 0 0))
0()
0()
1((0 0 0))
0()
0()
1((0 0 0))
0()
0()
0()
0()
0()
0()
1((0 0 0))
0()
0()
1((0 0 0))
0()
0()
0()
0()
0()
0()
0()
1((0 0 0))
0()
0()
1((0 0 0))
0()
0()
0()
0()
0()
1((0 0 0))
0()
0()
1((0 0 0))
0()
0()
1((0 0 0))
0()
0()
0()
0()
0()
0()
0()
0()
0()
0()
0()
0()
0()
0()
0()
0()
0()
0()
0()
0()
0()
0()
0()
0()
0()
0()
0()
0()
0()
0()
0()
0()
0()
0()
0()
0()
0()
0()
0()
0()
0()
0()
0()
0()
0()
0()
0()
0()
0()
0()
0()
0()
0()
0()
0()
0()
0()
0()
0()
0()
0()
0()
1((0 0 0))
0()
1((0 0 0))
1((0 0 0))
0()
0()
1((0 0 0))
0()
0()
0()
0()
1((0 0 0))
0()
1((0 0 0))
0()
0()
1((0 0 0))
0()
0()
0()
0()
0()
0()
0()
0()
0()
0()
0()
0()
0()
0()
0()
1((0 0 0))
0()
1((0 0 0))
0()
1((0 0 0))
0()
1((0 0 0))
0()
0()
0()
0()
0()
0()
0()
0()
0()
1((0 0 0))
0()
1((0 0 0))
0()
0()
0()
0()
1((0 0 0))
0()
1((0 0 0))
0()
0()
0()
0()
1((0 0 0))
0()
1((0 0 0))
0()
0()
0()
0()
1((0 0 0))
0()
0()
1((0 0 0))
0()
0()
1((0 0 0))
0()
0()
0()
1((0 0 0))
0()
0()
0()
0()
0()
0()
0()
0()
0()
0()
0()
0()
0()
0()
0()
0()
0()
0()
0()
0()
0()
0()
0()
0()
0()
0()
0()
0()
0()
0()
0()
0()
0()
0()
0()
0()
0()
0()
0()
0()
0()
0()
0()
0()
0()
0()
0()
0()
0()
0()
0()
0()
0()
0()
0()
0()
0()
0()
0()
0()
0()
0()
1((0 0 0))
1((0 0 0))
0()
1((0 0 0))
0()
0()
0()
0()
0()
0()
0()
0()
0()
0()
0()
0()
0()
0()
0()
0()
0()
0()
0()
0()
0()
0()
0()
0()
0()
0()
0()
0()
0()
0()
0()
0()
0()
0()
0()
0()
0()
0()
0()
0()
0()
0()
0()
0()
0()
0()
0()
0()
0()
0()
0()
0()
0()
0()
0()
0()
0()
0()
0()
0()
0()
0()
0()
0()
0()
1((0 0 0))
0()
0()
1((0 0 0))
0()
1((0 0 0))
1((0 0 0))
1((0 0 0))
0()
0()
0()
0()
0()
0()
0()
0()
0()
0()
0()
0()
0()
0()
0()
0()
0()
0()
0()
0()
0()
0()
0()
0()
0()
0()
0()
0()
0()
0()
0()
0()
0()
0()
0()
0()
0()
0()
0()
0()
0()
0()
0()
0()
0()
0()
0()
0()
0()
0()
0()
0()
0()
0()
0()
0()
0()
0()
0()
0()
0()
0()
0()
0()
0()
0()
0()
1((0 0 0))
0()
0()
0()
0()
0()
0()
0()
0()
0()
0()
0()
0()
0()
0()
0()
0()
0()
0()
0()
0()
0()
0()
0()
0()
0()
0()
0()
0()
0()
0()
0()
0()
0()
0()
0()
0()
0()
0()
0()
0()
0()
0()
0()
0()
0()
0()
0()
0()
0()
0()
0()
0()
0()
0()
0()
0()
0()
0()
0()
0()
0()
0()
0()
0()
0()
0()
0()
0()
0()
0()
0()
0()
0()
0()
0()
0()
0()
1((0 0 0))
0()
0()
0()
0()
1((0 0 0))
0()
1((0 0 0))
0()
0()
0()
0()
1((0 0 0))
0()
1((0 0 0))
0()
0()
0()
0()
1((0 0 0))
0()
1((0 0 0))
0()
0()
0()
0()
0()
0()
0()
0()
0()
0()
0()
0()
0()
0()
0()
0()
0()
0()
0()
0()
0()
0()
0()
0()
0()
0()
0()
0()
0()
0()
0()
0()
0()
0()
0()
0()
0()
0()
0()
0()
0()
0()
0()
0()
0()
0()
0()
0()
0()
0()
0()
0()
0()
0()
0()
0()
0()
0()
0()
0()
0()
0()
0()
0()
0()
0()
0()
0()
0()
0()
0()
0()
0()
0()
0()
0()
0()
0()
0()
0()
1((0 0 0))
1((0 0 0))
1((0 0 0))
0()
1((0 0 0))
1((0 0 0))
0()
1((0 0 0))
0()
0()
1((0 0 0))
0()
1((0 0 0))
0()
1((0 0 0))
0()
0()
0()
0()
0()
0()
1((0 0 0))
0()
0()
0()
0()
0()
0()
1((0 0 0))
0()
0()
0()
0()
1((0 0 0))
0()
1((0 0 0))
0()
0()
0()
0()
0()
0()
0()
0()
0()
0()
0()
0()
0()
0()
0()
0()
0()
0()
0()
0()
0()
0()
0()
0()
0()
0()
0()
0()
0()
0()
0()
0()
0()
0()
0()
0()
0()
0()
0()
0()
0()
0()
0()
0()
0()
0()
0()
0()
0()
0()
0()
0()
0()
0()
0()
0()
0()
0()
0()
0()
0()
0()
1((0 0 0))
1((0 0 0))
1((0 0 0))
1((0 0 0))
0()
0()
0()
0()
0()
0()
0()
0()
0()
0()
0()
0()
0()
0()
0()
0()
0()
0()
0()
0()
0()
0()
0()
0()
0()
0()
0()
0()
0()
0()
0()
0()
0()
0()
0()
0()
0()
0()
0()
0()
0()
0()
0()
0()
0()
0()
0()
0()
0()
0()
0()
0()
0()
0()
0()
0()
0()
0()
0()
0()
0()
0()
0()
0()
0()
1((0 0 0))
0()
0()
0()
0()
0()
0()
0()
0()
0()
0()
0()
0()
0()
0()
0()
0()
0()
0()
0()
0()
0()
0()
0()
0()
0()
0()
0()
0()
0()
0()
0()
0()
0()
0()
0()
0()
0()
0()
0()
0()
0()
0()
0()
0()
0()
0()
0()
0()
0()
0()
0()
0()
0()
0()
0()
0()
0()
0()
0()
0()
0()
0()
0()
0()
0()
0()
0()
0()
0()
0()
0()
1((0 0 0))
0()
0()
1((0 0 0))
0()
1((0 0 0))
0()
0()
0()
0()
1((0 0 0))
0()
1((0 0 0))
0()
0()
0()
0()
1((0 0 0))
0()
1((0 0 0))
0()
0()
0()
0()
0()
0()
1((0 0 0))
0()
0()
0()
0()
1((0 0 0))
0()
0()
0()
1((0 0 0))
0()
0()
0()
0()
0()
0()
0()
0()
0()
1((0 0 0))
0()
1((0 0 0))
0()
1((0 0 0))
0()
1((0 0 0))
0()
0()
1((0 0 0))
0()
1((0 0 0))
0()
1((0 0 0))
0()
0()
1((0 0 0))
0()
1((0 0 0))
0()
0()
0()
0()
0()
0()
0()
0()
1((0 0 0))
1((0 0 0))
0()
0()
0()
0()
0()
0()
0()
0()
0()
0()
0()
0()
0()
0()
0()
0()
0()
0()
0()
0()
0()
0()
0()
0()
0()
0()
0()
0()
0()
0()
0()
0()
0()
0()
0()
0()
0()
0()
0()
0()
0()
0()
0()
0()
0()
0()
0()
0()
0()
0()
0()
0()
0()
0()
0()
0()
0()
0()
0()
0()
0()
0()
0()
0()
0()
0()
0()
0()
0()
0()
0()
0()
0()
0()
0()
0()
0()
0()
0()
0()
0()
0()
0()
0()
0()
0()
0()
0()
0()
0()
0()
0()
0()
0()
0()
0()
0()
0()
0()
0()
0()
0()
0()
0()
0()
0()
0()
0()
0()
0()
0()
0()
0()
0()
0()
0()
0()
0()
0()
0()
0()
0()
0()
0()
0()
0()
0()
0()
0()
0()
0()
0()
0()
0()
0()
0()
0()
0()
1((0 0 0))
1((0 0 0))
1((0 0 0))
1((0 0 0))
0()
1((0 0 0))
0()
0()
0()
0()
0()
0()
0()
0()
0()
0()
0()
0()
0()
0()
0()
0()
0()
0()
0()
0()
0()
0()
0()
0()
0()
0()
0()
0()
0()
0()
0()
0()
0()
0()
0()
0()
0()
0()
0()
0()
0()
0()
0()
0()
0()
0()
0()
0()
0()
0()
0()
0()
0()
0()
0()
0()
0()
0()
0()
0()
0()
0()
0()
0()
0()
0()
0()
0()
0()
0()
0()
0()
0()
0()
0()
0()
0()
0()
0()
0()
0()
0()
0()
0()
0()
0()
0()
0()
0()
0()
0()
0()
0()
0()
0()
0()
0()
0()
0()
0()
0()
0()
0()
0()
0()
0()
0()
0()
0()
0()
0()
0()
0()
0()
0()
0()
0()
0()
0()
0()
0()
0()
0()
0()
0()
0()
0()
0()
0()
0()
0()
0()
0()
0()
0()
0()
0()
1((0 0 0))
1((0 0 0))
0()
1((0 0 0))
0()
1((0 0 0))
0()
0()
0()
0()
0()
0()
0()
0()
0()
0()
0()
0()
0()
1((0 0 0))
0()
0()
0()
0()
0()
0()
1((0 0 0))
0()
0()
0()
0()
1((0 0 0))
0()
1((0 0 0))
0()
0()
0()
0()
0()
0()
1((0 0 0))
0()
1((0 0 0))
0()
0()
1((0 0 0))
0()
1((0 0 0))
0()
1((0 0 0))
0()
0()
0()
0()
1((0 0 0))
0()
1((0 0 0))
0()
0()
0()
0()
1((0 0 0))
0()
1((0 0 0))
0()
0()
0()
0()
1((0 0 0))
0()
1((0 0 0))
1((0 0 0))
1((0 0 0))
0()
1((0 0 0))
0()
0()
0()
0()
0()
0()
0()
0()
0()
0()
0()
0()
0()
0()
0()
0()
0()
0()
0()
0()
0()
0()
0()
0()
0()
0()
0()
0()
0()
0()
0()
0()
0()
0()
0()
0()
0()
0()
0()
0()
0()
0()
0()
0()
0()
0()
0()
0()
0()
0()
0()
0()
0()
0()
0()
0()
0()
0()
0()
0()
0()
0()
0()
0()
0()
0()
1((0 0 0))
0()
0()
1((0 0 0))
0()
0()
0()
0()
0()
0()
0()
0()
0()
0()
0()
0()
0()
0()
0()
0()
0()
0()
0()
0()
0()
0()
0()
0()
0()
0()
0()
0()
0()
0()
0()
0()
0()
0()
0()
0()
0()
0()
0()
0()
0()
0()
0()
0()
0()
0()
0()
0()
0()
0()
0()
0()
0()
0()
0()
0()
0()
0()
0()
0()
0()
0()
0()
0()
0()
0()
0()
1((0 0 0))
0()
0()
0()
0()
0()
0()
0()
1((0 0 0))
0()
1((0 0 0))
0()
0()
0()
0()
0()
0()
0()
0()
0()
0()
0()
0()
0()
0()
0()
0()
0()
0()
0()
0()
0()
0()
0()
0()
0()
0()
0()
0()
0()
0()
0()
0()
0()
0()
0()
0()
0()
0()
0()
0()
0()
0()
0()
0()
0()
0()
0()
0()
0()
0()
0()
0()
0()
0()
0()
0()
0()
0()
0()
0()
0()
0()
0()
0()
0()
0()
0()
0()
1((0 0 0))
0()
1((0 0 0))
0()
0()
0()
0()
0()
0()
0()
0()
0()
0()
0()
0()
0()
0()
0()
0()
0()
0()
0()
0()
0()
0()
0()
0()
0()
0()
0()
0()
0()
0()
0()
0()
0()
0()
0()
0()
0()
0()
0()
0()
0()
0()
0()
0()
0()
0()
0()
0()
0()
0()
0()
0()
0()
0()
0()
0()
0()
0()
0()
0()
0()
0()
0()
0()
0()
0()
0()
1((0 0 0))
1((0 0 0))
0()
1((0 0 0))
0()
1((0 0 0))
0()
1((0 0 0))
0()
0()
0()
0()
1((0 0 0))
0()
0()
0()
0()
0()
0()
1((0 0 0))
0()
0()
0()
0()
0()
0()
0()
0()
0()
0()
0()
0()
0()
0()
0()
1((0 0 0))
0()
0()
0()
0()
1((0 0 0))
0()
1((0 0 0))
0()
0()
0()
0()
1((0 0 0))
0()
1((0 0 0))
0()
1((0 0 0))
0()
0()
1((0 0 0))
0()
1((0 0 0))
0()
0()
0()
0()
1((0 0 0))
0()
1((0 0 0))
0()
0()
0()
0()
1((0 0 0))
0()
1((0 0 0))
1((0 0 0))
0()
1((0 0 0))
0()
0()
0()
0()
0()
0()
0()
0()
0()
0()
0()
0()
0()
0()
0()
0()
0()
0()
0()
0()
0()
0()
0()
0()
0()
0()
0()
0()
0()
0()
0()
0()
0()
0()
0()
0()
0()
0()
0()
0()
0()
0()
0()
0()
0()
0()
0()
0()
0()
0()
0()
0()
0()
0()
0()
0()
0()
0()
0()
0()
0()
0()
0()
0()
0()
0()
0()
0()
0()
0()
0()
0()
0()
0()
0()
0()
0()
0()
0()
0()
0()
0()
0()
0()
0()
0()
0()
0()
0()
0()
0()
0()
0()
0()
0()
0()
0()
0()
0()
0()
0()
0()
0()
0()
0()
0()
0()
0()
0()
0()
0()
0()
0()
0()
0()
0()
0()
0()
0()
0()
0()
0()
0()
0()
0()
0()
0()
0()
0()
0()
0()
0()
0()
0()
0()
0()
0()
0()
0()
0()
0()
1((0 0 0))
1((0 0 0))
1((0 0 0))
0()
0()
0()
0()
0()
0()
0()
0()
0()
0()
0()
0()
0()
0()
0()
0()
0()
0()
0()
0()
0()
0()
0()
0()
0()
0()
0()
0()
0()
0()
0()
0()
0()
0()
0()
0()
0()
0()
0()
0()
0()
0()
0()
0()
0()
0()
0()
0()
0()
0()
0()
0()
0()
0()
0()
0()
0()
0()
0()
0()
0()
0()
0()
0()
0()
1((0 0 0))
1((0 0 0))
0()
0()
0()
0()
0()
0()
0()
0()
0()
0()
0()
0()
0()
0()
0()
0()
0()
0()
0()
0()
0()
0()
0()
0()
0()
0()
0()
0()
0()
0()
0()
0()
0()
0()
0()
0()
0()
0()
0()
0()
0()
0()
0()
0()
0()
0()
0()
0()
0()
0()
0()
0()
0()
0()
0()
0()
0()
0()
0()
0()
0()
0()
0()
0()
0()
0()
0()
0()
0()
1((0 0 0))
1((0 0 0))
1((0 0 0))
0()
1((0 0 0))
0()
1((0 0 0))
0()
0()
0()
0()
1((0 0 0))
0()
1((0 0 0))
0()
0()
0()
0()
0()
0()
1((0 0 0))
0()
0()
0()
0()
0()
0()
0()
0()
0()
0()
0()
1((0 0 0))
0()
0()
0()
0()
0()
0()
1((0 0 0))
0()
0()
0()
0()
0()
0()
1((0 0 0))
0()
0()
0()
0()
0()
0()
0()
0()
1((0 0 0))
0()
1((0 0 0))
0()
0()
0()
0()
1((0 0 0))
0()
1((0 0 0))
0()
0()
0()
0()
0()
0()
0()
0()
1((0 0 0))
1((0 0 0))
0()
0()
0()
0()
0()
0()
0()
0()
0()
0()
0()
0()
0()
0()
0()
0()
0()
0()
0()
0()
0()
0()
0()
0()
0()
0()
0()
0()
0()
0()
0()
0()
0()
0()
0()
0()
0()
0()
0()
0()
0()
0()
0()
0()
0()
0()
0()
0()
0()
0()
0()
0()
0()
0()
0()
0()
0()
0()
0()
0()
0()
0()
0()
0()
0()
0()
0()
0()
0()
0()
0()
0()
0()
0()
0()
0()
0()
0()
0()
0()
0()
0()
0()
0()
0()
0()
0()
0()
0()
0()
0()
0()
0()
0()
0()
0()
0()
0()
0()
0()
0()
0()
0()
0()
0()
0()
0()
0()
0()
0()
0()
0()
0()
0()
0()
0()
0()
0()
0()
0()
0()
0()
0()
0()
0()
0()
0()
0()
0()
0()
0()
0()
0()
0()
0()
0()
0()
0()
0()
0()
0()
0()
0()
0()
0()
0()
0()
0()
0()
0()
0()
0()
0()
0()
0()
0()
0()
0()
0()
0()
0()
0()
0()
0()
0()
0()
0()
0()
0()
0()
0()
0()
0()
0()
0()
0()
0()
0()
0()
0()
0()
0()
0()
0()
0()
0()
0()
0()
0()
0()
0()
0()
0()
0()
0()
0()
0()
1((0 0 0))
0()
0()
1((0 0 0))
0()
1((0 0 0))
1((0 0 0))
0()
0()
0()
0()
0()
0()
0()
0()
0()
0()
0()
0()
0()
0()
0()
0()
0()
0()
0()
0()
0()
0()
0()
0()
0()
0()
0()
0()
0()
0()
0()
0()
0()
0()
0()
0()
0()
0()
0()
0()
0()
0()
0()
0()
0()
0()
0()
0()
0()
0()
0()
0()
0()
0()
0()
0()
0()
0()
0()
0()
0()
0()
0()
0()
0()
0()
0()
0()
0()
0()
1((0 0 0))
1((0 0 0))
0()
1((0 0 0))
0()
1((0 0 0))
0()
0()
0()
0()
1((0 0 0))
0()
1((0 0 0))
0()
0()
0()
0()
0()
0()
1((0 0 0))
0()
0()
0()
0()
0()
0()
0()
0()
0()
0()
0()
0()
0()
0()
0()
0()
0()
0()
0()
0()
0()
0()
1((0 0 0))
0()
0()
1((0 0 0))
0()
0()
0()
0()
0()
0()
0()
0()
0()
0()
1((0 0 0))
0()
0()
1((0 0 0))
0()
1((0 0 0))
0()
1((0 0 0))
0()
0()
0()
0()
0()
0()
0()
1((0 0 0))
1((0 0 0))
0()
0()
0()
0()
0()
0()
0()
0()
0()
0()
0()
0()
0()
0()
0()
0()
0()
0()
0()
0()
0()
0()
0()
0()
0()
0()
0()
0()
0()
0()
0()
0()
0()
0()
0()
0()
0()
0()
0()
0()
0()
0()
0()
0()
0()
0()
0()
0()
0()
0()
0()
0()
0()
0()
0()
0()
0()
0()
0()
0()
0()
0()
0()
0()
0()
0()
0()
0()
1((0 0 0))
0()
1((0 0 0))
0()
0()
0()
0()
0()
0()
0()
0()
0()
0()
0()
0()
0()
0()
0()
0()
0()
0()
0()
0()
0()
0()
0()
0()
0()
0()
0()
0()
0()
0()
0()
0()
0()
0()
0()
0()
0()
0()
0()
0()
0()
0()
0()
0()
0()
0()
0()
0()
0()
0()
0()
0()
0()
0()
0()
0()
0()
0()
0()
0()
0()
0()
0()
0()
0()
0()
0()
0()
0()
0()
1((0 0 0))
1((0 0 0))
1((0 0 0))
1((0 0 0))
0()
0()
0()
0()
0()
0()
0()
0()
0()
0()
0()
0()
0()
0()
0()
0()
0()
0()
0()
0()
0()
0()
0()
0()
0()
0()
0()
0()
0()
0()
0()
0()
0()
0()
0()
0()
0()
0()
0()
0()
0()
0()
0()
0()
0()
0()
0()
0()
0()
0()
0()
0()
0()
0()
0()
0()
0()
0()
0()
0()
1((0 0 0))
0()
0()
0()
0()
1((0 0 0))
1((0 0 0))
0()
0()
0()
0()
0()
0()
0()
0()
0()
0()
0()
0()
0()
0()
0()
0()
0()
0()
0()
0()
0()
0()
0()
0()
0()
0()
0()
0()
0()
0()
0()
0()
0()
0()
0()
0()
0()
0()
0()
0()
0()
0()
0()
0()
0()
0()
0()
0()
0()
0()
0()
0()
0()
0()
0()
0()
0()
0()
0()
0()
0()
0()
0()
0()
0()
1((0 0 0))
0()
0()
0()
1((0 0 0))
1((0 0 0))
0()
1((0 0 0))
1((0 0 0))
0()
1((0 0 0))
0()
0()
0()
0()
1((0 0 0))
0()
0()
0()
0()
0()
0()
1((0 0 0))
0()
0()
0()
0()
0()
0()
0()
0()
0()
0()
0()
0()
0()
0()
0()
0()
0()
0()
0()
0()
0()
0()
0()
0()
0()
0()
0()
0()
0()
0()
0()
0()
0()
0()
0()
0()
0()
0()
1((0 0 0))
0()
0()
1((0 0 0))
0()
1((0 0 0))
0()
1((0 0 0))
0()
1((0 0 0))
0()
0()
0()
0()
0()
0()
1((0 0 0))
0()
0()
1((0 0 0))
0()
0()
0()
0()
0()
0()
0()
1((0 0 0))
0()
0()
0()
1((0 0 0))
0()
0()
0()
0()
0()
0()
0()
0()
0()
0()
0()
0()
0()
0()
0()
0()
0()
0()
0()
0()
0()
0()
0()
0()
0()
0()
0()
0()
0()
0()
0()
0()
0()
0()
0()
0()
0()
0()
0()
0()
0()
0()
0()
0()
0()
0()
0()
0()
1((0 0 0))
0()
0()
0()
0()
0()
0()
1((0 0 0))
1((0 0 0))
0()
0()
1((0 0 0))
0()
0()
1((0 0 0))
0()
0()
0()
0()
0()
0()
1((0 0 0))
1((0 0 0))
0()
0()
0()
0()
0()
0()
0()
0()
0()
0()
0()
0()
0()
0()
0()
0()
0()
0()
0()
0()
0()
0()
0()
0()
0()
0()
0()
0()
0()
0()
0()
0()
0()
0()
0()
0()
0()
0()
0()
0()
1((0 0 0))
0()
0()
0()
0()
0()
0()
0()
0()
0()
0()
0()
0()
2((0 0 0) (-4.28047e-10 -2.47133e-10 -1.27004e-18))
0()
0()
1((0 0 0))
0()
0()
1((0 0 0))
0()
1((0 0 0))
1((0 0 0))
0()
0()
1((0 0 0))
0()
0()
1((0 0 0))
1((0 0 0))
0()
1((0 0 0))
1((0 0 0))
0()
0()
1((0 0 0))
1((0 0 0))
0()
0()
1((0 0 0))
0()
0()
1((0 0 0))
1((0 0 0))
0()
1((0 0 0))
0()
0()
0()
1((0 0 0))
0()
0()
1((0 0 0))
0()
0()
0()
1((0 0 0))
0()
1((0 0 0))
0()
0()
0()
0()
0()
0()
1((0 0 0))
0()
0()
0()
1((0 0 0))
0()
0()
1((0 0 0))
0()
0()
0()
0()
0()
0()
1((0 0 0))
0()
0()
0()
0()
0()
0()
0()
1((0 0 0))
1((0 0 0))
0()
0()
0()
0()
1((0 0 0))
0()
0()
0()
0()
0()
1((0 0 0))
0()
0()
1((0 0 0))
0()
0()
1((0 0 0))
0()
0()
1((0 0 0))
0()
0()
1((0 0 0))
0()
0()
1((0 0 0))
1((0 0 0))
0()
0()
1((0 0 0))
0()
0()
0()
0()
0()
1((0 0 0))
1((0 0 0))
0()
0()
0()
0()
0()
0()
1((0 0 0))
0()
0()
1((0 0 0))
0()
0()
1((0 0 0))
0()
0()
0()
0()
1((0 0 0))
1((0 0 0))
1((0 0 0))
1((0 0 0))
1((0 0 0))
0()
1((0 0 0))
0()
0()
0()
0()
0()
2((0 0 0) (-1.02306e-06 -5.90664e-07 -2.17203e-17))
1((0 0 0))
0()
0()
1((0 0 0))
1((0 0 0))
0()
0()
1((0 0 0))
1((0 0 0))
0()
1((0 0 0))
1((0 0 0))
0()
0()
1((0 0 0))
0()
1((0 0 0))
0()
0()
1((0 0 0))
0()
0()
1((0 0 0))
1((0 0 0))
0()
0()
1((0 0 0))
0()
0()
0()
1((0 0 0))
0()
0()
1((0 0 0))
1((0 0 0))
0()
0()
1((0 0 0))
0()
0()
1((0 0 0))
0()
1((0 0 0))
0()
1((0 0 0))
0()
0()
1((0 0 0))
1((0 0 0))
1((0 0 0))
0()
1((0 0 0))
0()
0()
1((0 0 0))
1((0 0 0))
1((0 0 0))
0()
1((0 0 0))
0()
0()
1((0 0 0))
0()
1((0 0 0))
0()
1((0 0 0))
0()
1((0 0 0))
0()
0()
0()
0()
1((0 0 0))
0()
0()
0()
0()
)


// ************************************************************************* //
