/*--------------------------------*- C++ -*----------------------------------*\
  =========                 |
  \\      /  F ield         | OpenFOAM: The Open Source CFD Toolbox
   \\    /   O peration     | Website:  https://openfoam.org
    \\  /    A nd           | Version:  8
     \\/     M anipulation  |
\*---------------------------------------------------------------------------*/
FoamFile
{
    version     2.0;
    format      ascii;
    class       labelFieldField;
    location    "0/lagrangian/kinematicCloud";
    object      collisionRecordsPairOrigIdOfOther;
}
// * * * * * * * * * * * * * * * * * * * * * * * * * * * * * * * * * * * * * //


3300
(
0()
0()
0()
1(4)
1(3)
1(6)
1(5)
1(8)
1(7)
0()
1(11)
2(10 12)
1(11)
0()
0()
1(16)
1(15)
0()
1(19)
2(18 20)
2(19 21)
2(20 22)
1(21)
1(24)
2(23 25)
2(24 26)
1(25)
0()
0()
0()
0()
0()
0()
0()
0()
0()
0()
0()
0()
1(110)
0()
0()
0()
0()
0()
0()
0()
0()
0()
0()
0()
0()
0()
0()
0()
0()
0()
0()
0()
0()
0()
0()
0()
0()
0()
0()
0()
0()
0()
0()
0()
0()
0()
0()
0()
0()
0()
0()
0()
0()
0()
0()
0()
0()
0()
0()
0()
0()
0()
0()
0()
0()
0()
0()
0()
0()
0()
0()
0()
0()
0()
0()
0()
0()
0()
1(106)
2(178 105)
0()
0()
0()
1(39)
0()
1(113)
1(112)
1(115)
2(116 114)
2(115 117)
1(116)
0()
0()
0()
0()
0()
0()
1(125)
1(124)
1(127)
2(128 126)
1(127)
1(130)
1(129)
0()
1(133)
1(132)
0()
1(136)
1(135)
0()
1(139)
1(138)
0()
0()
1(143)
2(144 142)
1(143)
0()
1(147)
2(148 146)
2(149 147)
1(148)
1(151)
2(150 152)
2(153 151)
1(152)
1(155)
2(226 154)
1(227)
0()
0()
0()
1(231)
0()
0()
0()
0()
0()
0()
0()
0()
0()
0()
0()
0()
0()
0()
0()
0()
0()
3(179 106 249)
2(178 180)
2(181 179)
2(180 182)
2(181 183)
2(184 182)
2(183 255)
0()
0()
0()
0()
0()
0()
0()
0()
0()
0()
0()
1(197)
2(196 198)
2(199 197)
2(200 198)
2(199 201)
2(200 202)
2(203 201)
2(204 202)
2(203 205)
2(206 204)
2(207 205)
2(208 206)
2(207 209)
2(210 208)
2(209 211)
2(212 210)
2(211 213)
2(214 212)
2(213 215)
2(214 216)
2(215 217)
2(216 218)
2(217 219)
2(218 220)
2(219 221)
2(220 222)
2(221 223)
2(222 224)
2(223 225)
2(224 226)
3(225 227 155)
3(226 228 156)
2(227 229)
2(228 230)
2(229 231)
3(230 232 160)
2(231 233)
2(232 234)
2(233 235)
2(234 236)
2(235 237)
2(236 238)
2(237 239)
2(240 238)
1(239)
1(242)
2(243 241)
1(242)
0()
0()
0()
0()
1(249)
2(178 248)
0()
1(322)
0()
0()
0()
1(184)
0()
0()
0()
0()
0()
0()
0()
0()
0()
0()
0()
1(268)
2(267 269)
1(268)
1(271)
2(272 270)
1(271)
0()
0()
0()
0()
0()
0()
0()
0()
0()
0()
0()
0()
0()
0()
0()
0()
0()
0()
0()
0()
0()
0()
0()
0()
0()
0()
0()
0()
0()
0()
0()
0()
0()
0()
0()
0()
0()
0()
0()
0()
0()
0()
0()
0()
0()
0()
0()
1(321)
1(320)
3(393 323 251)
1(322)
1(325)
2(324 326)
1(325)
1(328)
2(327 329)
2(328 330)
2(329 331)
2(332 330)
2(331 333)
2(334 332)
2(333 335)
2(334 336)
2(335 337)
2(336 338)
2(337 339)
2(340 338)
2(339 341)
2(340 342)
2(341 343)
2(344 342)
2(343 345)
2(346 344)
2(345 347)
2(346 348)
2(347 349)
2(348 350)
2(349 351)
2(350 352)
2(353 351)
2(352 354)
2(355 353)
2(354 356)
2(355 357)
2(356 358)
1(357)
1(360)
2(359 361)
1(360)
0()
0()
0()
0()
0()
0()
0()
0()
0()
0()
0()
0()
0()
0()
0()
0()
0()
0()
0()
0()
0()
0()
0()
0()
0()
0()
0()
0()
0()
1(462)
1(393)
3(464 322 392)
2(465 395)
1(394)
1(397)
3(468 398 396)
2(397 399)
2(398 400)
2(399 401)
2(402 400)
2(401 403)
3(404 402 474)
3(403 405 475)
2(404 406)
2(407 405)
2(406 408)
2(407 479)
1(410)
2(409 411)
2(410 412)
2(411 413)
2(412 414)
2(413 415)
2(414 416)
2(415 417)
2(418 416)
2(417 419)
2(418 420)
2(419 421)
1(420)
0()
0()
1(425)
1(424)
0()
0()
0()
0()
1(431)
2(432 430)
1(431)
0()
0()
0()
0()
0()
1(439)
1(438)
0()
0()
0()
0()
0()
0()
0()
0()
0()
0()
0()
0()
1(453)
1(452)
0()
0()
0()
0()
0()
0()
0()
0()
2(533 391)
0()
3(535 393 465)
3(536 394 464)
1(537)
1(538)
3(539 397 469)
2(468 470)
2(469 471)
2(472 470)
2(473 471)
2(474 472)
3(473 475 403)
3(476 474 404)
3(475 477 547)
2(476 478)
3(477 479 549)
3(478 480 408)
2(479 481)
2(480 482)
2(481 483)
2(482 484)
2(485 483)
2(484 486)
1(485)
0()
0()
0()
0()
0()
0()
1(494)
1(493)
0()
0()
0()
0()
1(500)
2(501 499)
2(500 502)
2(501 503)
2(502 504)
2(503 505)
2(504 506)
2(505 507)
2(506 508)
2(507 509)
2(508 510)
2(509 511)
2(510 512)
2(511 513)
2(512 514)
1(513)
0()
0()
1(518)
2(517 519)
1(518)
1(521)
2(520 522)
2(523 521)
2(522 524)
2(523 525)
2(526 524)
1(525)
0()
0()
0()
0()
0()
0()
2(534 462)
2(533 535)
3(606 464 534)
3(537 607 465)
3(536 608 466)
3(539 609 467)
4(538 540 468 610)
2(541 539)
2(542 540)
2(541 543)
2(542 544)
2(545 543)
2(546 544)
2(545 547)
3(546 548 476)
3(547 549 619)
3(548 550 478)
3(549 551 621)
2(552 550)
3(553 551 623)
2(554 552)
2(555 553)
2(554 556)
2(555 557)
2(558 556)
2(557 559)
2(560 558)
2(559 561)
2(560 562)
2(561 563)
2(562 564)
2(565 563)
2(564 566)
2(565 567)
2(566 568)
2(567 569)
2(568 570)
2(569 571)
2(570 572)
2(571 573)
2(572 574)
2(573 575)
2(574 576)
2(575 577)
2(576 578)
2(577 579)
2(578 580)
2(579 581)
2(580 582)
2(581 583)
2(582 584)
2(583 585)
2(584 586)
2(585 587)
2(586 588)
1(587)
0()
0()
0()
0()
0()
0()
0()
0()
0()
0()
0()
0()
0()
0()
0()
1(675)
1(676)
2(535 677)
2(678 536)
3(679 537 609)
3(538 680 608)
3(681 539 611)
2(682 610)
1(613)
2(612 614)
2(613 615)
2(616 614)
2(617 615)
3(618 616 688)
2(617 619)
3(620 618 548)
2(619 621)
3(620 622 550)
3(623 621 693)
3(624 622 552)
2(625 623)
2(626 624)
2(625 627)
2(626 628)
2(629 627)
2(628 630)
2(631 629)
2(630 632)
2(631 633)
2(632 634)
2(633 635)
2(636 634)
2(635 637)
2(636 638)
2(637 639)
2(638 640)
2(639 641)
2(640 642)
3(641 643 713)
2(642 644)
2(643 645)
2(644 646)
2(645 647)
2(648 646)
2(647 649)
2(648 650)
2(649 651)
2(650 652)
2(651 653)
3(652 654 724)
2(653 655)
2(654 656)
2(655 657)
2(656 658)
2(657 659)
2(658 660)
2(659 661)
2(660 662)
2(661 663)
2(662 664)
2(663 665)
2(664 666)
2(665 667)
2(666 668)
2(667 669)
2(668 670)
1(669)
0()
0()
0()
0()
1(604)
2(3 605)
2(4 606)
2(5 607)
2(6 608)
2(7 609)
2(8 610)
3(9 611 683)
2(684 682)
3(685 683 11)
2(684 686)
3(687 13 685)
1(686)
3(617 689 15)
2(690 688)
2(691 689)
2(690 692)
2(691 693)
3(694 692 622)
3(695 693 21)
2(696 694)
3(697 695 23)
2(696 698)
2(697 699)
2(700 698)
2(699 701)
2(702 700)
2(701 703)
2(702 704)
2(705 703)
2(706 704)
2(705 707)
2(706 708)
2(707 709)
2(708 710)
2(709 711)
2(712 710)
2(711 713)
3(712 714 642)
2(713 715)
2(714 716)
2(715 717)
2(716 718)
2(717 719)
2(718 720)
2(719 721)
2(720 722)
2(723 721)
2(722 724)
3(723 725 653)
2(724 726)
2(725 727)
2(726 728)
2(727 729)
2(728 730)
2(729 731)
3(730 732 770)
2(731 733)
2(732 734)
1(733)
1(774)
0()
1(776)
0()
0()
0()
0()
0()
0()
2(745 747)
2(748 746)
2(747 749)
2(748 750)
2(749 751)
2(750 752)
2(753 751)
2(752 754)
2(755 753)
2(754 756)
2(755 757)
2(756 758)
2(757 759)
2(758 760)
2(759 761)
2(760 762)
2(761 763)
2(764 762)
2(763 765)
2(764 766)
2(765 767)
1(766)
0()
0()
1(731)
0()
0()
0()
1(735)
0()
1(737)
0()
0()
0()
0()
0()
0()
2(784 786)
2(785 787)
2(786 788)
2(787 789)
2(788 790)
2(789 791)
2(790 792)
2(791 793)
2(792 794)
2(793 795)
2(794 796)
2(795 797)
2(796 798)
1(797)
0()
0()
0()
0()
0()
0()
0()
0()
0()
0()
1(848)
0()
0()
0()
0()
0()
0()
0()
0()
0()
0()
0()
0()
2(823 825)
2(824 826)
2(827 825)
2(826 828)
2(829 827)
2(828 830)
2(829 831)
2(830 832)
2(831 833)
2(832 834)
2(833 835)
2(834 836)
2(835 837)
2(836 838)
2(837 839)
2(145 838)
0()
1(147)
0()
0()
0()
0()
0()
1(153)
2(154 809)
0()
1(156)
0()
1(158)
0()
0()
0()
0()
0()
1(164)
0()
0()
0()
0()
0()
1(34)
2(35 676)
3(677 36 5)
3(37 678 4)
2(38 679)
2(680 39)
3(40 681 9)
3(682 41 8)
2(11 42)
3(12 10 684)
3(11 13 44)
4(12 14 686 45)
3(15 13 46)
3(14 16 688)
2(17 15)
2(16 18)
3(19 17 50)
2(18 20)
3(19 21 52)
3(20 22 694)
2(23 21)
3(24 22 696)
3(23 25 56)
2(26 24)
2(27 25)
2(28 26)
2(29 27)
2(28 30)
2(31 29)
2(30 744)
1(65)
2(2 66)
1(3)
2(4 68)
2(5 69)
3(39 6 70)
4(38 71 7 40)
4(8 41 72 39)
4(73 40 9 42)
4(43 41 10 74)
3(44 42 75)
3(43 45 12)
3(44 13 46)
4(47 14 78 45)
2(46 48)
2(47 49)
3(48 50 81)
3(51 49 18)
3(50 52 83)
3(51 53 20)
3(54 52 85)
2(53 55)
3(54 56 87)
3(57 55 24)
3(58 56 89)
2(59 57)
2(58 60)
2(61 59)
2(60 62)
2(61 63)
2(62 783)
0()
1(33)
1(34)
0()
2(36 100)
2(101 37)
2(102 38)
2(39 103)
2(104 40)
3(41 105 74)
4(75 106 42 73)
4(76 74 107 43)
3(77 75 108)
3(76 78 109)
4(79 77 110 46)
2(78 80)
2(79 81)
3(80 82 49)
3(81 83 114)
3(84 82 51)
3(83 85 116)
3(86 84 53)
3(85 87 118)
3(88 86 55)
3(87 89 120)
3(90 88 57)
2(89 91)
2(92 90)
2(93 91)
2(92 94)
2(93 95)
2(94 822)
0()
0()
2(169 99)
1(98)
2(68 171)
2(69 172)
2(173 70)
2(174 71)
3(72 175 105)
4(73 176 104 106)
3(177 74 105)
3(108 75 178)
3(107 76 179)
3(110 180 77)
4(111 109 78 181)
3(112 110 182)
3(111 113 183)
2(114 112)
3(113 115 82)
2(116 114)
3(115 117 84)
3(118 116 188)
3(119 117 86)
2(118 120)
3(119 121 88)
3(120 122 192)
2(123 121)
2(122 124)
2(125 123)
2(124 126)
2(125 127)
2(126 128)
2(127 129)
2(130 128)
2(129 131)
2(130 132)
2(133 131)
2(132 134)
2(135 133)
2(136 134)
2(137 135)
2(136 138)
2(137 139)
2(138 140)
2(141 139)
2(140 142)
2(143 141)
2(142 144)
2(143 145)
3(839 144 146)
2(145 147)
3(841 146 148)
2(147 149)
1(148)
0()
0()
1(223)
1(847)
2(225 848)
0()
1(850)
0()
1(852)
1(230)
0()
0()
0()
0()
2(858 235)
0()
0()
0()
0()
1(98)
0()
2(242 100)
2(101 243)
2(244 102)
3(245 103 175)
3(246 104 174)
3(247 105 177)
4(106 248 178 176)
4(177 179 107 249)
4(178 180 250 108)
3(181 179 109)
4(180 182 110 252)
3(183 181 111)
3(182 184 112)
3(183 185 255)
2(184 186)
2(185 187)
3(186 188 258)
3(189 187 117)
3(190 188 260)
2(191 189)
3(190 192 262)
3(191 193 121)
3(194 192 264)
2(193 195)
2(196 194)
2(195 197)
2(196 198)
2(197 199)
2(198 200)
2(199 201)
2(200 202)
2(201 203)
2(202 204)
2(203 205)
2(204 206)
2(205 207)
3(278 206 208)
2(207 209)
2(208 210)
2(209 211)
2(212 210)
2(213 211)
2(212 214)
1(213)
1(216)
1(215)
0()
0()
0()
0()
0()
0()
1(152)
1(295)
1(154)
0()
0()
0()
0()
1(159)
0()
1(303)
1(304)
1(305)
2(164 306)
0()
0()
0()
0()
1(311)
2(312 242)
3(171 313 241)
2(172 314)
2(315 173)
2(174 316)
3(175 317 247)
4(318 176 246 248)
4(177 319 247 249)
4(320 248 250 178)
4(179 251 249 321)
3(252 250 322)
4(253 323 251 181)
3(254 252 324)
3(255 253 325)
4(254 256 184 326)
3(257 255 327)
2(256 258)
3(259 257 187)
3(260 258 330)
3(261 259 189)
2(260 262)
3(261 263 191)
2(262 264)
3(265 263 193)
2(264 266)
2(267 265)
2(266 268)
2(267 269)
2(268 270)
2(269 271)
2(272 270)
2(271 273)
2(272 274)
2(275 273)
2(274 276)
2(277 275)
2(278 276)
4(279 277 207 349)
2(278 280)
2(279 281)
2(280 282)
2(281 283)
2(282 284)
1(283)
0()
0()
0()
0()
0()
0()
0()
0()
0()
0()
1(224)
1(367)
1(368)
0()
1(370)
1(371)
0()
0()
2(232 374)
1(233)
1(234)
1(235)
0()
0()
0()
0()
2(312 240)
3(383 241 311)
2(384 242)
2(385 243)
2(386 244)
3(387 245 317)
3(246 388 316)
3(247 389 319)
4(390 320 248 318)
4(321 249 391 319)
4(320 322 392 250)
4(323 321 251 393)
4(324 322 252 394)
3(323 325 253)
4(326 324 396 254)
3(325 327 255)
3(326 328 256)
3(329 327 399)
2(330 328)
3(329 331 259)
3(332 330 402)
2(333 331)
2(332 334)
2(333 335)
2(336 334)
2(335 337)
2(338 336)
2(337 339)
2(338 340)
2(339 341)
2(340 342)
2(343 341)
2(342 344)
2(343 345)
2(346 344)
2(345 347)
1(346)
0()
1(278)
0()
0()
0()
1(354)
2(353 355)
2(354 356)
2(355 357)
2(356 358)
2(357 359)
3(358 430 360)
1(359)
1(362)
1(361)
1(364)
2(435 363)
1(436)
0()
2(296 438)
1(297)
1(440)
2(299 441)
2(300 442)
0()
0()
2(445 303)
0()
0()
1(448)
0()
0()
0()
0()
1(383)
3(312 454 382)
2(313 455)
2(456 314)
3(315 457 387)
3(316 458 386)
2(317 459)
2(318 460)
3(319 461 391)
4(320 462 392 390)
4(393 391 321 463)
4(394 392 464 322)
4(395 393 465 323)
3(394 396 466)
3(395 397 325)
2(396 398)
2(397 399)
4(398 400 470 328)
2(401 399)
3(402 400 472)
3(403 401 331)
2(404 402)
2(403 405)
2(404 406)
2(407 405)
2(406 408)
2(409 407)
2(408 410)
2(409 411)
2(410 412)
2(411 413)
2(414 412)
2(413 415)
2(414 416)
2(415 417)
2(416 418)
1(417)
0()
0()
1(492)
0()
1(494)
0()
0()
0()
0()
0()
0()
1(359)
0()
1(503)
0()
0()
1(364)
2(365 507)
0()
2(509 367)
1(510)
1(369)
1(370)
2(371 513)
0()
0()
2(374 516)
1(517)
0()
2(519 377)
0()
0()
0()
0()
0()
2(525 383)
3(526 384 456)
3(527 385 455)
2(528 386)
3(387 529 459)
4(530 388 460 458)
3(389 531 459)
3(532 390 462)
3(391 533 461)
3(464 534 392)
4(463 465 393 535)
4(466 464 394 536)
3(467 465 395)
3(466 468 538)
2(469 467)
3(470 468 540)
3(469 471 399)
2(472 470)
3(473 471 401)
2(474 472)
2(473 475)
2(474 476)
2(475 477)
2(478 476)
2(477 479)
2(480 478)
2(479 481)
2(480 482)
2(481 483)
2(482 484)
2(485 483)
2(484 486)
2(485 487)
2(486 488)
2(487 489)
2(488 490)
2(489 491)
1(490)
2(493 421)
2(492 494)
2(423 493)
0()
0()
0()
0()
0()
0()
0()
0()
1(432)
0()
1(576)
1(577)
1(436)
0()
2(438 580)
2(581 439)
0()
0()
1(442)
0()
0()
2(587 445)
2(446 588)
0()
1(448)
0()
0()
0()
0()
0()
3(596 454 526)
3(455 597 525)
2(456 598)
2(457 599)
2(600 458)
2(601 459)
2(460 602)
3(603 461 533)
4(462 604 534 532)
3(533 463 605)
3(536 606 464)
3(537 535 465)
3(536 538 608)
3(539 537 467)
3(540 538 610)
3(539 541 469)
3(540 542 612)
2(543 541)
2(544 542)
2(545 543)
2(546 544)
2(545 547)
2(546 548)
2(549 547)
2(548 550)
2(551 549)
2(550 552)
2(551 553)
2(552 554)
2(553 555)
2(556 554)
2(555 557)
2(556 558)
2(559 557)
2(558 560)
2(559 561)
2(560 562)
2(561 563)
2(564 562)
2(563 565)
2(566 564)
2(565 567)
2(568 566)
1(567)
0()
0()
0()
0()
0()
0()
0()
1(505)
1(506)
1(649)
0()
1(509)
2(652 510)
0()
0()
0()
0()
0()
2(516 658)
1(517)
1(660)
1(661)
0()
0()
0()
0()
1(666)
2(525 667)
2(668 526)
2(527 669)
2(670 528)
3(529 671 601)
4(530 672 600 602)
4(531 673 601 603)
4(532 674 604 602)
3(533 603 675)
3(606 676 534)
4(605 607 535 677)
3(608 606 678)
3(607 609 537)
3(608 610 680)
3(609 611 539)
3(612 610 682)
3(611 613 541)
2(612 614)
2(613 615)
2(614 616)
2(617 615)
2(618 616)
2(619 617)
2(620 618)
2(619 621)
2(622 620)
2(621 623)
2(622 624)
2(623 625)
2(624 626)
2(627 625)
2(626 628)
2(627 629)
2(630 628)
2(629 631)
2(630 632)
2(631 633)
1(632)
0()
0()
0()
0()
0()
1(640)
3(639 641 711)
1(640)
1(643)
2(644 642)
1(643)
0()
0()
1(648)
1(647)
1(578)
0()
0()
2(723 581)
1(724)
1(725)
1(726)
1(727)
0()
2(587 659)
2(730 658)
1(589)
2(590 732)
0()
0()
1(735)
0()
1(595)
2(738 596)
2(597 739)
2(598 740)
3(741 599 671)
4(600 742 670 672)
3(743 601 671)
2(744 602)
3(745 603 675)
4(676 746 604 674)
3(675 747 605)
3(678 748 606)
4(677 679 749 607)
3(680 678 750)
3(681 679 609)
2(680 682)
3(681 683 611)
2(684 682)
2(685 683)
2(686 684)
2(687 685)
2(688 686)
2(687 689)
2(688 690)
2(691 689)
2(690 692)
2(693 691)
2(692 694)
2(693 695)
2(694 696)
3(695 697 767)
1(696)
0()
0()
0()
0()
1(703)
2(704 702)
2(705 703)
2(706 704)
2(705 707)
2(706 708)
2(707 709)
2(708 710)
2(709 711)
3(710 712 640)
1(711)
0()
1(715)
1(714)
1(717)
1(716)
1(789)
1(790)
0()
1(792)
0()
2(652 794)
1(653)
2(796 654)
1(655)
2(656 798)
0()
1(800)
2(659 731)
2(730 802)
1(661)
0()
0()
1(664)
0()
0()
2(3 667)
2(668 4)
2(5 669)
2(670 6)
3(7 671 743)
4(8 672 744 742)
4(673 9 745 743)
4(746 674 10 744)
3(745 675 11)
3(748 676 12)
4(749 747 13 677)
4(748 750 678 14)
3(749 751 679)
2(752 750)
2(751 753)
2(752 754)
2(753 755)
2(756 754)
2(757 755)
2(758 756)
2(759 757)
2(758 760)
2(759 761)
2(762 760)
2(761 763)
2(764 762)
2(763 765)
2(764 766)
2(765 767)
3(766 768 696)
2(769 767)
2(770 768)
2(769 771)
1(770)
0()
0()
0()
0()
1(777)
2(776 778)
2(777 779)
2(778 780)
2(779 781)
2(780 782)
2(781 783)
2(782 784)
2(783 785)
2(784 786)
1(785)
0()
0()
2(718 790)
3(719 789 55)
0()
1(721)
1(58)
2(723 59)
1(60)
2(725 61)
0()
1(727)
1(64)
3(729 65 801)
1(800)
1(731)
0()
1(69)
1(70)
2(31 745)
2(63 784)
2(95 823)
2(746 744)
2(783 785)
2(824 822)
0()
0()
0()
2(74 738)
2(75 739)
2(740 76)
2(77 741)
3(78 742 8)
3(79 743 7)
3(80 744 10)
3(81 745 9)
3(12 82 746)
4(11 83 747 13)
4(14 748 84 12)
4(15 13 749 85)
3(16 14 86)
3(15 17 87)
2(18 16)
2(19 17)
2(18 20)
2(21 19)
2(22 20)
2(23 21)
2(22 24)
2(23 25)
2(24 26)
1(25)
0()
0()
1(30)
2(29 31)
2(30 32)
2(31 33)
2(32 34)
1(33)
0()
0()
0()
0()
0()
1(41)
2(42 40)
2(41 43)
2(42 44)
2(43 45)
1(44)
0()
0()
0()
1(50)
1(49)
0()
0()
1(124)
2(125 55)
3(126 54 790)
0()
0()
2(793 129)
1(794)
2(795 131)
1(796)
0()
0()
2(799 135)
2(800 136)
0()
0()
0()
1(804)
1(805)
1(142)
0()
0()
3(145 3 75)
3(146 4 74)
3(147 5 77)
3(6 148 76)
2(7 149)
3(150 8 80)
4(151 9 79 81)
4(152 82 10 80)
4(81 11 153 83)
4(84 12 154 82)
4(83 85 13 155)
4(86 84 156 14)
4(85 87 15 157)
4(86 88 158 16)
2(89 87)
2(90 88)
3(91 89 161)
2(92 90)
2(91 93)
2(94 92)
2(93 95)
2(96 94)
2(95 97)
2(98 96)
2(97 99)
2(98 100)
1(99)
0()
0()
0()
0()
0()
0()
0()
0()
0()
0()
0()
0()
0()
0()
0()
0()
1(188)
0()
0()
0()
0()
0()
0()
2(53 195)
2(196 54)
1(55)
0()
0()
2(58 200)
0()
2(60 202)
0()
0()
0()
1(64)
1(65)
0()
1(209)
0()
1(211)
1(212)
1(71)
1(214)
0()
2(216 74)
3(217 75 147)
3(76 218 146)
2(77 219)
3(220 78 150)
3(221 79 149)
3(80 222 152)
3(223 81 151)
3(154 82 224)
4(153 155 225 83)
4(154 156 226 84)
4(155 157 85 227)
4(156 158 228 86)
3(157 159 87)
2(160 158)
2(159 161)
3(162 160 90)
2(161 163)
2(164 162)
2(165 163)
2(164 166)
2(165 167)
2(166 168)
2(169 167)
2(168 170)
2(171 169)
2(170 172)
2(171 173)
2(172 174)
2(173 175)
1(174)
0()
0()
0()
0()
0()
0()
0()
0()
0()
0()
0()
0()
1(117)
0()
0()
0()
0()
0()
0()
2(266 124)
1(125)
0()
0()
0()
2(271 129)
1(272)
2(273 131)
0()
1(275)
0()
1(277)
1(278)
0()
1(138)
0()
2(282 140)
2(141 283)
0()
2(285 143)
1(286)
2(287 145)
3(288 146 218)
4(147 289 217 219)
4(148 290 220 218)
3(291 149 219)
3(150 292 222)
4(293 151 221 223)
4(294 152 224 222)
3(223 153 295)
3(226 296 154)
4(227 225 297 155)
4(226 228 298 156)
4(229 227 157 299)
3(230 228 300)
2(229 231)
2(232 230)
2(233 231)
2(234 232)
2(233 235)
2(236 234)
3(235 237 307)
2(236 238)
2(239 237)
2(238 240)
2(239 241)
2(240 242)
2(241 243)
2(244 242)
2(243 245)
1(244)
0()
0()
0()
0()
0()
0()
0()
0()
0()
0()
0()
0()
0()
0()
0()
0()
0()
0()
1(335)
0()
1(195)
0()
1(269)
1(268)
1(341)
2(200 342)
2(201 343)
1(202)
0()
2(204 346)
1(347)
2(206 348)
1(207)
0()
1(351)
0()
2(211 353)
1(212)
1(355)
1(214)
2(215 357)
2(358 216)
3(217 359 289)
3(218 360 288)
3(361 219 291)
4(362 220 292 290)
3(363 221 291)
2(364 222)
2(223 365)
3(296 366 224)
3(295 367 225)
3(298 226 368)
4(299 369 297 227)
4(300 298 370 228)
4(301 299 371 229)
2(302 300)
3(301 303 373)
3(304 302 374)
3(305 303 375)
2(304 306)
3(307 305 377)
4(306 308 378 236)
2(309 307)
2(308 310)
2(311 309)
2(310 312)
2(313 311)
2(312 314)
2(313 315)
2(314 316)
2(315 317)
2(316 318)
2(317 319)
2(318 320)
2(319 321)
2(320 322)
2(321 323)
2(322 324)
2(323 325)
1(324)
0()
0()
0()
0()
0()
1(402)
0()
0()
0()
1(264)
0()
0()
0()
0()
1(411)
1(270)
1(271)
2(414 272)
1(415)
0()
2(275 417)
1(276)
1(277)
0()
1(421)
2(422 280)
0()
2(282 424)
0()
1(284)
0()
1(286)
2(429 287)
3(430 288 360)
3(289 431 359)
3(290 432 362)
3(433 291 361)
3(434 292 364)
3(435 293 363)
3(294 436 366)
3(295 437 365)
3(368 296 438)
4(369 367 439 297)
4(370 368 298 440)
4(371 369 441 299)
4(372 370 300 442)
2(371 373)
4(372 374 444 302)
4(375 373 445 303)
3(376 374 304)
3(377 375 447)
3(378 376 306)
4(377 379 307 449)
2(378 380)
3(379 381 451)
2(382 380)
3(381 383 453)
2(384 382)
2(383 385)
2(384 386)
2(385 387)
2(386 388)
2(389 387)
2(390 388)
2(391 389)
2(390 392)
2(391 393)
2(392 394)
2(393 395)
2(394 396)
2(395 397)
2(398 396)
2(397 399)
1(398)
0()
0()
1(331)
1(404)
2(475 403)
0()
0()
0()
0()
1(480)
1(481)
2(482 340)
2(413 483)
2(484 412)
1(343)
2(486 344)
0()
2(488 346)
0()
1(490)
1(491)
2(350 492)
2(351 493)
0()
1(353)
0()
0()
2(428 498)
1(427)
2(500 358)
2(501 359)
2(502 360)
2(503 361)
3(362 504 434)
3(505 363 433)
3(506 436 364)
3(435 365 507)
3(438 508 366)
4(439 437 509 367)
4(438 440 368 510)
4(439 369 511 441)
4(442 512 370 440)
4(443 441 513 371)
3(444 442 514)
4(445 443 515 373)
4(444 446 374 516)
3(447 445 517)
4(446 448 518 376)
3(447 449 519)
3(448 450 378)
3(449 451 521)
3(450 452 380)
3(451 453 523)
3(452 454 382)
3(453 455 525)
2(454 456)
2(455 457)
2(456 458)
3(457 459 529)
2(458 460)
2(459 461)
2(462 460)
2(461 463)
2(462 464)
2(463 465)
2(464 466)
2(465 467)
2(466 468)
2(467 469)
1(468)
0()
1(472)
1(471)
1(474)
1(473)
1(404)
2(547 477)
2(548 476)
0()
1(550)
2(551 409)
2(552 410)
1(411)
2(554 412)
2(413 555)
1(556)
2(557 415)
1(558)
2(417 559)
1(560)
1(419)
2(562 420)
2(421 563)
1(422)
1(565)
0()
0()
0()
1(427)
0()
3(571 429 501)
3(572 430 500)
2(431 573)
3(432 574 504)
4(433 575 505 503)
4(434 576 506 504)
3(435 577 505)
3(508 578 436)
4(507 579 437 509)
4(510 438 580 508)
4(511 509 439 581)
4(510 512 582 440)
4(513 511 583 441)
4(512 514 584 442)
4(515 513 585 443)
4(516 514 586 444)
3(517 515 445)
4(516 518 588 446)
4(519 517 589 447)
4(518 520 448 590)
3(521 519 591)
3(520 522 450)
3(523 521 593)
3(524 522 452)
3(525 523 595)
3(524 526 454)
2(525 527)
2(526 528)
2(527 529)
3(528 530 458)
3(531 529 601)
2(532 530)
2(533 531)
2(532 534)
2(533 535)
2(534 536)
2(535 537)
2(536 538)
2(537 539)
2(540 538)
2(539 541)
2(540 542)
2(541 543)
3(542 544 614)
3(543 545 615)
2(544 546)
3(617 545 547)
3(476 548 546)
3(547 549 477)
2(550 548)
2(549 479)
2(622 480)
2(481 553)
1(552)
1(483)
2(626 484)
2(627 485)
2(486 628)
2(487 629)
2(630 488)
1(489)
0()
1(491)
1(492)
1(635)
2(494 636)
0()
1(638)
0()
0()
1(641)
2(642 500)
2(643 501)
2(644 502)
2(645 503)
2(646 504)
2(647 505)
3(578 506 648)
3(577 649 507)
3(580 508 650)
4(581 579 509 651)
4(582 580 510 652)
4(581 583 653 511)
4(582 584 654 512)
3(583 585 513)
4(586 584 514 656)
4(587 585 657 515)
3(588 586 658)
4(587 589 659 517)
4(590 588 518 660)
3(589 591 519)
4(590 592 520 662)
3(593 591 663)
4(592 594 522 664)
3(595 593 665)
4(596 594 524 666)
2(595 597)
2(596 598)
3(597 599 669)
3(598 600 670)
2(599 601)
3(600 602 530)
2(601 603)
2(602 604)
2(605 603)
2(604 606)
2(605 607)
2(606 608)
2(607 609)
2(608 610)
2(611 609)
2(610 612)
2(611 613)
2(614 612)
4(613 615 543 685)
3(614 616 544)
2(615 617)
3(546 616 618)
1(617)
1(620)
2(619 621)
1(620)
1(551)
1(694)
0()
0()
2(555 697)
2(556 698)
2(699 557)
2(558 700)
2(559 701)
0()
1(703)
1(704)
1(705)
2(564 706)
1(565)
1(708)
2(567 709)
1(710)
0()
2(570 1)
2(2 571)
2(3 572)
2(573 4)
2(574 5)
2(6 575)
3(576 7 648)
3(8 577 647)
2(9 578)
3(651 10 579)
4(652 650 11 580)
4(653 651 581 12)
4(652 654 582 13)
3(653 655 583)
3(656 654 15)
3(655 657 585)
4(658 656 586 17)
3(657 659 587)
4(660 658 588 19)
3(659 661 589)
3(662 660 21)
3(661 663 591)
4(664 662 23 592)
3(665 663 593)
4(666 664 25 594)
3(667 665 595)
3(666 668 27)
2(667 669)
4(668 670 29 598)
3(669 671 599)
2(670 672)
2(673 671)
2(674 672)
2(675 673)
2(674 676)
2(675 677)
2(676 678)
2(677 679)
2(678 680)
2(679 681)
2(680 682)
2(681 683)
2(682 684)
3(683 685 717)
3(684 686 614)
2(685 687)
2(686 688)
2(689 687)
2(688 690)
2(689 691)
2(692 690)
2(691 693)
2(692 726)
2(623 695)
3(728 696 694)
1(695)
2(626 730)
2(627 731)
1(628)
2(629 733)
2(630 734)
1(735)
1(632)
1(633)
2(634 738)
2(635 739)
0()
2(637 741)
2(638 742)
2(712 714)
2(713 715)
2(714 716)
2(715 717)
3(716 718 684)
2(717 719)
2(718 720)
2(719 721)
2(720 722)
1(721)
2(724 756)
1(723)
1(758)
2(759 693)
0()
1(695)
1(762)
2(763 697)
2(764 698)
0()
1(700)
2(767 701)
1(702)
1(769)
0()
2(705 771)
2(706 772)
0()
1(708)
1(709)
0()
0()
0()
0()
0()
0()
0()
1(124)
0()
0()
1(723)
0()
1(725)
2(726 130)
1(131)
1(132)
1(729)
2(730 134)
2(731 135)
0()
0()
2(138 734)
0()
1(736)
1(141)
1(738)
1(739)
0()
1(145)
0()
0()
0()
1(641)
2(642 40)
3(643 41 4)
3(42 644 3)
3(645 43 6)
4(646 44 5 7)
3(647 45 6)
3(648 46 9)
4(10 8 649 47)
4(11 48 9 650)
4(10 12 651 49)
4(13 11 50 652)
4(12 14 653 51)
3(13 15 52)
3(16 14 655)
3(15 17 54)
3(18 16 657)
3(19 17 56)
3(18 20 659)
3(19 21 58)
3(22 20 661)
3(23 21 60)
3(24 22 663)
3(23 25 62)
3(26 24 665)
3(25 27 64)
3(26 28 667)
2(29 27)
4(28 67 30 669)
2(31 29)
3(32 30 69)
2(31 33)
2(32 34)
2(33 35)
2(34 36)
2(35 37)
2(36 711)
2(79 2)
2(80 3)
2(4 81)
2(82 5)
2(6 83)
3(84 7 46)
3(85 8 45)
3(48 86 9)
4(10 47 49 87)
4(88 48 50 11)
4(49 51 12 89)
4(52 50 13 90)
4(51 53 91 14)
3(52 54 92)
4(53 55 16 93)
3(54 56 94)
3(55 57 18)
3(96 56 58)
3(59 57 20)
3(58 98 60)
3(59 61 22)
3(100 60 62)
3(63 61 24)
3(64 62 102)
3(63 65 26)
2(64 66)
2(65 67)
3(29 66 68)
3(67 69 107)
3(68 70 31)
3(69 71 109)
2(70 72)
2(71 73)
2(72 74)
2(73 75)
2(74 744)
0()
0()
1(149)
2(40 150)
3(151 41 81)
3(152 42 80)
2(43 153)
2(44 154)
2(45 155)
3(156 46 86)
4(47 85 157 87)
4(88 48 86 158)
4(49 159 87 89)
4(50 88 160 90)
4(161 89 91 51)
4(162 92 52 90)
3(91 93 53)
4(92 164 94 54)
3(93 95 55)
3(94 96 166)
3(97 57 95)
3(96 98 168)
3(99 97 59)
3(100 98 170)
3(101 99 61)
3(100 102 172)
4(103 101 63 173)
2(104 102)
2(103 105)
2(104 106)
3(107 177 105)
3(108 106 68)
3(107 109 179)
3(108 110 70)
3(109 111 181)
2(110 112)
2(111 113)
2(112 114)
2(113 115)
2(114 116)
1(115)
0()
0()
0()
0()
0()
0()
0()
1(753)
0()
0()
0()
0()
0()
1(759)
1(760)
1(761)
0()
2(205 763)
2(764 206)
0()
0()
1(767)
0()
0()
1(770)
0()
1(214)
0()
1(774)
0()
1(218)
0()
1(78)
2(79 221)
2(80 222)
2(81 223)
3(82 224 154)
3(83 225 153)
2(226 84)
2(85 227)
2(228 86)
3(229 87 159)
4(160 88 230 158)
4(159 89 231 161)
3(162 90 160)
3(161 163 91)
3(162 164 234)
3(163 165 93)
3(164 166 236)
3(165 167 95)
3(166 168 238)
3(169 167 97)
3(168 170 240)
4(171 169 99 241)
2(170 172)
3(173 171 101)
3(174 172 102)
2(173 175)
2(176 174)
2(175 177)
3(106 178 176)
3(179 177 249)
3(180 178 108)
2(179 181)
3(180 182 110)
2(183 181)
2(182 184)
3(255 183 185)
2(186 184)
2(185 187)
2(186 188)
2(187 189)
2(188 190)
1(189)
0()
1(263)
0()
0()
1(196)
1(195)
0()
0()
0()
0()
0()
0()
0()
1(275)
2(134 276)
2(135 277)
0()
1(279)
1(280)
1(281)
0()
0()
1(284)
2(143 285)
0()
0()
0()
1(147)
0()
0()
2(150 292)
2(151 293)
2(152 294)
2(295 153)
2(154 296)
2(155 297)
2(156 228)
4(157 299 229 227)
3(230 158 228)
4(231 229 301 159)
4(230 232 302 160)
2(231 233)
3(232 234 304)
3(235 233 163)
2(234 236)
3(237 235 165)
3(236 238 308)
3(239 237 167)
2(238 240)
4(241 239 169 311)
3(240 242 170)
3(243 241 313)
2(244 242)
2(243 245)
2(246 244)
3(245 247 317)
2(246 248)
2(249 247)
3(248 250 178)
2(249 251)
2(250 252)
2(251 253)
2(252 254)
2(253 255)
3(254 256 184)
2(255 257)
2(256 258)
2(257 259)
2(258 260)
2(259 261)
2(260 262)
2(261 263)
3(262 264 192)
2(265 263)
2(264 266)
1(265)
0()
0()
0()
0()
0()
0()
0()
0()
1(204)
2(205 347)
1(206)
1(349)
1(208)
1(209)
2(352 210)
0()
0()
1(213)
1(214)
0()
0()
0()
0()
0()
1(292)
3(293 221 291)
3(292 222 364)
3(223 365 295)
4(296 224 366 294)
4(295 367 225 297)
4(298 296 368 226)
3(297 299 369)
3(300 298 228)
2(301 299)
4(302 300 230 372)
4(303 301 231 373)
3(304 302 374)
3(305 303 233)
2(304 306)
2(307 305)
2(306 308)
3(309 307 237)
2(310 308)
3(311 309 381)
3(312 310 240)
3(311 313 383)
3(312 314 242)
2(315 313)
2(314 316)
2(317 315)
3(316 318 246)
2(317 319)
2(318 320)
2(319 321)
2(320 322)
2(321 323)
2(324 322)
2(323 325)
2(324 326)
2(325 327)
2(326 328)
2(329 327)
2(328 330)
2(329 331)
2(332 330)
2(331 333)
2(332 334)
2(333 335)
2(334 336)
2(335 337)
3(336 338 408)
2(337 339)
2(338 340)
2(339 341)
2(340 342)
2(341 343)
2(342 344)
2(343 345)
2(344 346)
2(345 347)
3(346 348 276)
2(347 349)
3(348 350 278)
2(349 351)
2(350 352)
4(423 281 351 353)
1(352)
0()
0()
0()
0()
0()
0()
0()
0()
1(363)
2(362 434)
3(435 293 365)
4(294 436 364 366)
4(437 295 365 367)
3(296 368 366)
4(369 367 297 439)
4(440 298 368 370)
1(369)
1(372)
3(373 371 301)
3(372 374 302)
4(373 375 445 303)
2(374 376)
2(375 377)
2(376 378)
2(377 379)
2(378 380)
2(379 381)
3(380 382 310)
3(383 381 453)
3(384 382 312)
2(383 385)
2(384 386)
3(385 387 457)
2(386 388)
2(387 389)
2(388 390)
2(391 389)
2(390 392)
2(391 393)
2(394 392)
2(393 395)
2(394 396)
2(395 397)
2(398 396)
2(397 399)
2(398 400)
2(399 401)
2(400 402)
2(403 401)
2(402 404)
2(403 405)
2(406 404)
2(407 405)
2(406 408)
3(407 409 337)
2(408 410)
2(409 411)
2(410 412)
2(411 413)
2(412 414)
2(413 415)
3(414 416 486)
2(415 417)
2(416 418)
2(419 417)
2(418 420)
2(419 421)
1(420)
0()
1(352)
0()
0()
0()
0()
0()
0()
0()
0()
0()
0()
3(435 505 363)
3(364 434 506)
3(365 507 437)
3(366 436 438)
2(437 439)
3(440 368 438)
4(439 369 441 511)
2(442 440)
2(441 443)
2(444 442)
3(443 445 515)
3(444 446 374)
2(447 445)
3(446 448 518)
2(447 449)
2(450 448)
2(449 451)
2(452 450)
2(453 451)
3(454 452 382)
2(453 455)
2(454 456)
2(457 455)
3(456 458 386)
2(459 457)
2(458 460)
2(459 461)
2(460 462)
2(461 463)
2(462 464)
2(465 463)
2(464 466)
2(467 465)
2(466 468)
2(467 469)
2(468 470)
2(471 469)
2(470 472)
2(471 473)
2(472 474)
2(473 475)
2(476 474)
2(475 477)
2(478 476)
2(479 477)
2(478 480)
1(479)
1(482)
2(483 481)
1(482)
1(485)
1(484)
1(415)
1(488)
2(489 487)
1(488)
1(491)
2(492 490)
1(491)
0()
1(495)
1(494)
0()
0()
0()
0()
0()
0()
0()
0()
0()
1(434)
3(435 577 507)
3(508 436 506)
2(507 579)
1(580)
0()
1(440)
0()
1(514)
1(513)
2(444 516)
2(515 517)
1(516)
3(519 589 447)
1(518)
1(521)
2(520 522)
2(521 523)
2(522 524)
2(525 523)
2(524 526)
2(525 527)
2(526 528)
2(527 529)
2(528 530)
2(529 531)
2(530 532)
2(533 531)
2(532 534)
2(533 535)
2(534 536)
2(535 537)
2(536 538)
2(537 539)
2(538 540)
1(539)
0()
0()
0()
0()
0()
0()
0()
0()
0()
1(551)
1(550)
1(553)
1(552)
1(555)
2(554 556)
2(557 555)
1(556)
1(559)
1(558)
1(561)
1(560)
0()
0()
0()
0()
0()
0()
0()
0()
0()
0()
0()
0()
1(645)
0()
0()
1(506)
0()
2(580 508)
3(579 581 509)
2(582 580)
2(581 583)
2(582 584)
2(583 585)
2(584 586)
2(587 585)
2(588 586)
2(587 589)
3(588 590 518)
2(591 589)
2(592 590)
2(591 593)
2(594 592)
2(595 593)
2(594 596)
2(595 597)
2(596 598)
2(597 599)
2(598 600)
2(599 601)
2(600 602)
2(601 603)
2(602 604)
2(603 605)
2(606 604)
2(607 605)
2(606 608)
2(607 609)
2(608 610)
2(609 611)
2(610 612)
2(611 613)
2(612 614)
2(613 615)
2(616 614)
2(615 617)
2(616 618)
1(617)
1(620)
1(619)
1(622)
1(621)
0()
1(625)
2(624 626)
1(625)
0()
0()
0()
0()
0()
0()
0()
0()
0()
1(637)
1(636)
0()
0()
0()
0()
0()
0()
1(645)
2(644 574)
1(716)
1(648)
2(649 647)
3(648 650 720)
2(649 651)
2(652 650)
2(651 653)
2(652 654)
2(655 653)
2(654 656)
2(655 657)
2(656 658)
2(657 659)
2(658 660)
2(659 661)
2(660 662)
2(661 663)
2(662 664)
2(663 665)
2(664 666)
2(667 665)
2(666 668)
2(667 669)
2(668 670)
2(669 671)
2(670 672)
3(671 673 743)
2(672 674)
2(673 675)
2(674 676)
2(675 677)
2(678 676)
2(677 679)
2(678 680)
2(681 679)
2(680 682)
2(681 683)
2(682 684)
2(683 685)
2(684 686)
2(685 687)
2(686 688)