/*--------------------------------*- C++ -*----------------------------------*\
  =========                 |
  \\      /  F ield         | OpenFOAM: The Open Source CFD Toolbox
   \\    /   O peration     | Website:  https://openfoam.org
    \\  /    A nd           | Version:  8
     \\/     M anipulation  |
\*---------------------------------------------------------------------------*/
FoamFile
{
    version     2.0;
    format      ascii;
    class       vectorFieldField;
    location    "0/lagrangian/kinematicCloud";
    object      collisionRecordsPairData;
}
// * * * * * * * * * * * * * * * * * * * * * * * * * * * * * * * * * * * * * //


3300
(
0()
0()
0()
1((-1.19047e-20 -1.889e-33 -9.94194e-21))
1((1.19047e-20 1.889e-33 9.94194e-21))
1((6.02015e-21 1.48165e-33 1.0689e-20))
1((-6.02015e-21 -1.48165e-33 -1.0689e-20))
1((4.31494e-21 3.16628e-34 2.12397e-22))
1((-4.31494e-21 -3.16628e-34 -2.12397e-22))
0()
1((1.76341e-17 -1.63785e-31 6.0862e-21))
2((-1.76341e-17 1.63785e-31 -6.0862e-21) (-8.52057e-16 -2.47185e-27 1.29687e-20))
1((8.52057e-16 2.47185e-27 -1.29687e-20))
0()
0()
1((6.22274e-22 -2.68233e-35 -6.53023e-22))
1((-6.22274e-22 2.68233e-35 6.53023e-22))
0()
1((1.80988e-21 -1.90192e-33 -1.22969e-21))
2((-1.80988e-21 1.90192e-33 1.22969e-21) (1.37756e-22 2.43104e-33 1.26714e-21))
2((-1.37756e-22 -2.43104e-33 -1.26714e-21) (2.09816e-21 -4.47436e-34 -1.50657e-21))
2((-2.09816e-21 4.47436e-34 1.50657e-21) (1.19138e-22 -7.28835e-37 -2.65207e-22))
1((-1.19138e-22 7.28835e-37 2.65207e-22))
1((-8.09651e-22 1.63029e-33 1.46352e-21))
2((8.09651e-22 -1.63029e-33 -1.46352e-21) (9.88905e-23 -6.48024e-35 -2.56508e-21))
2((-9.88905e-23 6.48024e-35 2.56508e-21) (1.19546e-22 5.37112e-34 -2.10382e-21))
1((-1.19546e-22 -5.37112e-34 2.10382e-21))
0()
0()
0()
0()
0()
0()
0()
0()
0()
0()
0()
0()
1((-1.65379e-07 -1.06493e-06 -1.10173e-17))
0()
0()
0()
0()
0()
0()
0()
0()
0()
0()
0()
0()
0()
0()
0()
0()
0()
0()
0()
0()
0()
0()
0()
0()
0()
0()
0()
0()
0()
0()
0()
0()
0()
0()
0()
0()
0()
0()
0()
0()
0()
0()
0()
0()
0()
0()
0()
0()
0()
0()
0()
0()
0()
0()
0()
0()
0()
0()
0()
0()
0()
0()
0()
0()
0()
1((1.5036e-07 2.35047e-09 3.96911e-20))
2((-5.24829e-07 8.54324e-07 3.73036e-18) (-1.5036e-07 -2.35047e-09 -3.96911e-20))
0()
0()
0()
1((1.65379e-07 1.06493e-06 1.10173e-17))
0()
1((2.10671e-08 -1.82955e-10 -7.22938e-21))
1((-2.10671e-08 1.82955e-10 7.22938e-21))
1((-1.10065e-08 -2.11936e-11 4.94339e-19))
2((-3.58734e-09 7.0216e-11 -2.3653e-20) (1.10065e-08 2.11936e-11 -4.94339e-19))
2((3.58734e-09 -7.0216e-11 2.3653e-20) (-9.86633e-11 -4.73813e-12 -1.68779e-19))
1((9.86633e-11 4.73813e-12 1.68779e-19))
0()
0()
0()
0()
0()
0()
1((-9.52005e-09 1.57616e-12 1.57695e-20))
1((9.52005e-09 -1.57616e-12 -1.57695e-20))
1((1.34719e-08 1.62214e-12 5.54799e-20))
2((-1.74484e-08 8.42563e-13 -1.54769e-20) (-1.34719e-08 -1.62214e-12 -5.54799e-20))
1((1.74484e-08 -8.42563e-13 1.54769e-20))
1((-8.15844e-09 -2.72854e-12 -1.65811e-20))
1((8.15844e-09 2.72854e-12 1.65811e-20))
0()
1((1.12532e-10 9.59226e-14 -3.41352e-21))
1((-1.12532e-10 -9.59226e-14 3.41352e-21))
0()
1((6.91244e-11 2.03193e-14 6.62742e-21))
1((-6.91244e-11 -2.03193e-14 -6.62742e-21))
0()
1((7.36714e-11 9.72862e-15 -1.96045e-21))
1((-7.36714e-11 -9.72862e-15 1.96045e-21))
0()
0()
1((-4.60768e-08 1.52438e-11 8.43027e-21))
2((4.63474e-08 1.78872e-11 2.7691e-20) (4.60768e-08 -1.52438e-11 -8.43027e-21))
1((-4.63474e-08 -1.78872e-11 -2.7691e-20))
0()
1((1.87607e-09 -4.10074e-14 1.26339e-21))
2((-4.75061e-10 -7.88411e-14 5.26804e-21) (-1.87607e-09 4.10074e-14 -1.26339e-21))
2((-5.92289e-10 -7.28315e-15 -2.35673e-21) (4.75061e-10 7.88411e-14 -5.26804e-21))
1((5.92289e-10 7.28315e-15 2.35673e-21))
1((8.32299e-09 2.48284e-12 4.37479e-21))
2((-8.32299e-09 -2.48284e-12 -4.37479e-21) (-2.12693e-08 4.16086e-12 -1.92472e-20))
2((1.50092e-08 -1.83118e-12 2.05552e-20) (2.12693e-08 -4.16086e-12 1.92472e-20))
1((-1.50092e-08 1.83118e-12 -2.05552e-20))
1((1.08451e-07 -1.84017e-11 -1.54612e-20))
2((0 0 0) (-1.08451e-07 1.84017e-11 1.54612e-20))
1((0 0 0))
0()
0()
0()
1((0 0 0))
0()
0()
0()
0()
0()
0()
0()
0()
0()
0()
0()
0()
0()
0()
0()
0()
0()
3((-8.1282e-07 8.86482e-10 1.96264e-18) (5.24829e-07 -8.54324e-07 -3.73036e-18) (2.26534e-08 -6.04047e-07 -4.32201e-19))
2((8.1282e-07 -8.86482e-10 -1.96264e-18) (-5.7547e-09 -4.83942e-10 -1.12219e-18))
2((-3.99609e-08 2.53366e-10 -9.16627e-20) (5.7547e-09 4.83942e-10 1.12219e-18))
2((3.99609e-08 -2.53366e-10 9.16627e-20) (2.61659e-07 1.07876e-08 -3.57259e-19))
2((-2.61659e-07 -1.07876e-08 3.57259e-19) (-2.37013e-07 2.26137e-08 3.14939e-19))
2((1.61089e-07 -2.50876e-09 6.87019e-20) (2.37013e-07 -2.26137e-08 -3.14939e-19))
2((-1.61089e-07 2.50876e-09 -6.87019e-20) (8.34351e-09 -1.51473e-07 -3.06116e-18))
0()
0()
0()
0()
0()
0()
0()
0()
0()
0()
0()
1((3.6345e-09 2.8198e-12 -2.7802e-20))
2((-3.6345e-09 -2.8198e-12 2.7802e-20) (-4.01369e-09 8.39233e-13 4.03388e-20))
2((4.95281e-09 -5.81336e-12 -6.29866e-20) (4.01369e-09 -8.39233e-13 -4.03388e-20))
2((-4.49535e-09 7.0085e-13 5.38575e-20) (-4.95281e-09 5.81336e-12 6.29866e-20))
2((4.49535e-09 -7.0085e-13 -5.38575e-20) (6.42088e-09 2.67806e-12 -1.1996e-20))
2((-6.42088e-09 -2.67806e-12 1.1996e-20) (-2.61133e-09 -2.06909e-13 -2.63602e-21))
2((-1.40722e-09 8.00914e-13 4.84534e-21) (2.61133e-09 2.06909e-13 2.63602e-21))
2((1.51861e-09 5.62006e-13 -7.10475e-21) (1.40722e-09 -8.00914e-13 -4.84534e-21))
2((-1.51861e-09 -5.62006e-13 7.10475e-21) (6.12035e-11 -1.30018e-13 2.75773e-20))
2((-6.93228e-10 1.09912e-13 -3.56545e-20) (-6.12035e-11 1.30018e-13 -2.75773e-20))
2((3.98726e-10 -5.4236e-15 1.77973e-20) (6.93228e-10 -1.09912e-13 3.56545e-20))
2((3.50355e-11 1.8363e-15 1.03316e-20) (-3.98726e-10 5.4236e-15 -1.77973e-20))
2((-3.50355e-11 -1.8363e-15 -1.03316e-20) (-4.14139e-10 1.51382e-13 -3.26218e-20))
2((5.68439e-10 3.18008e-13 2.82708e-20) (4.14139e-10 -1.51382e-13 3.26218e-20))
2((-5.68439e-10 -3.18008e-13 -2.82708e-20) (-3.73448e-10 1.34231e-13 -1.35983e-20))
2((-2.20731e-11 -7.98229e-14 4.64329e-21) (3.73448e-10 -1.34231e-13 1.35983e-20))
2((2.20731e-11 7.98229e-14 -4.64329e-21) (3.6135e-10 -3.26617e-14 -5.83964e-21))
2((-3.64172e-10 -1.8896e-13 1.56788e-20) (-3.6135e-10 3.26617e-14 5.83964e-21))
2((3.64172e-10 1.8896e-13 -1.56788e-20) (6.57203e-12 5.99481e-14 -1.82815e-20))
2((-6.57203e-12 -5.99481e-14 1.82815e-20) (2.00197e-10 9.60186e-15 2.63874e-21))
2((-2.00197e-10 -9.60186e-15 -2.63874e-21) (9.96806e-12 1.7713e-14 2.38548e-20))
2((-9.96806e-12 -1.7713e-14 -2.38548e-20) (-3.17437e-10 2.2206e-14 -2.98443e-20))
2((3.17437e-10 -2.2206e-14 2.98443e-20) (4.20857e-10 -2.12154e-14 2.62108e-20))
2((-4.20857e-10 2.12154e-14 -2.62108e-20) (-2.94351e-10 -3.43646e-14 -1.59221e-20))
2((2.94351e-10 3.43646e-14 1.59221e-20) (4.75036e-11 2.42587e-14 1.15673e-20))
2((-4.75036e-11 -2.42587e-14 -1.15673e-20) (1.38165e-09 1.50785e-13 -2.09267e-21))
2((-1.38165e-09 -1.50785e-13 2.09267e-21) (2.46147e-10 1.1018e-13 -4.1414e-21))
2((-2.46147e-10 -1.1018e-13 4.1414e-21) (-4.08707e-09 1.06351e-12 1.05025e-20))
2((4.08707e-09 -1.06351e-12 -1.05025e-20) (4.6237e-09 1.18207e-12 -8.91825e-21))
2((-4.6237e-09 -1.18207e-12 8.91825e-21) (-3.2369e-09 2.61218e-14 3.94926e-21))
3((3.2369e-09 -2.61218e-14 -3.94926e-21) (-1.97887e-08 -7.40749e-13 2.06804e-21) (0 0 0))
3((1.97887e-08 7.40749e-13 -2.06804e-21) (2.18112e-09 -2.47969e-13 -1.10562e-20) (0 0 0))
2((-2.18112e-09 2.47969e-13 1.10562e-20) (-8.1912e-10 -1.33487e-13 6.09427e-21))
2((8.1912e-10 1.33487e-13 -6.09427e-21) (6.5116e-10 -1.07168e-13 -1.79469e-21))
2((-6.5116e-10 1.07168e-13 1.79469e-21) (-3.12261e-09 -2.16538e-13 -3.50904e-21))
3((3.12261e-09 2.16538e-13 3.50904e-21) (-1.78738e-09 3.85945e-13 -1.93025e-20) (0 0 0))
2((1.78738e-09 -3.85945e-13 1.93025e-20) (1.11491e-09 1.07576e-13 3.03727e-20))
2((-1.11491e-09 -1.07576e-13 -3.03727e-20) (-6.62541e-10 8.52745e-14 -4.47498e-21))
2((6.62541e-10 -8.52745e-14 4.47498e-21) (3.04609e-10 5.24608e-14 -7.23404e-21))
2((-3.04609e-10 -5.24608e-14 7.23404e-21) (1.02991e-11 -1.23667e-14 -9.63112e-21))
2((-1.02991e-11 1.23667e-14 9.63112e-21) (-2.84441e-10 -1.10991e-14 3.0223e-20))
2((2.84441e-10 1.10991e-14 -3.0223e-20) (-9.52207e-11 2.76188e-14 -5.81793e-21))
2((9.52207e-11 -2.76188e-14 5.81793e-21) (4.18011e-10 2.87897e-14 8.44434e-21))
2((-2.38537e-11 1.0187e-15 -3.60655e-20) (-4.18011e-10 -2.87897e-14 -8.44434e-21))
1((2.38537e-11 -1.0187e-15 3.60655e-20))
1((2.4057e-10 4.27161e-16 5.69935e-19))
2((-1.16942e-10 5.02778e-17 1.12736e-19) (-2.4057e-10 -4.27161e-16 -5.69935e-19))
1((1.16942e-10 -5.02778e-17 -1.12736e-19))
0()
0()
0()
0()
1((3.99282e-07 8.02932e-08 2.90604e-18))
2((-2.26534e-08 6.04047e-07 4.32201e-19) (-3.99282e-07 -8.02932e-08 -2.90604e-18))
0()
1((0 0 0))
0()
0()
0()
1((-8.34351e-09 1.51473e-07 3.06116e-18))
0()
0()
0()
0()
0()
0()
0()
0()
0()
0()
0()
1((1.32414e-09 1.90632e-12 -2.54679e-19))
2((-1.32414e-09 -1.90632e-12 2.54679e-19) (-2.78507e-09 -8.68133e-12 -4.03662e-20))
1((2.78507e-09 8.68133e-12 4.03662e-20))
1((-1.1247e-08 4.93366e-12 2.06403e-19))
2((6.63735e-10 8.14258e-13 -2.06668e-20) (1.1247e-08 -4.93366e-12 -2.06403e-19))
1((-6.63735e-10 -8.14258e-13 2.06668e-20))
0()
0()
0()
0()
0()
0()
0()
0()
0()
0()
0()
0()
0()
0()
0()
0()
0()
0()
0()
0()
0()
0()
0()
0()
0()
0()
0()
0()
0()
0()
0()
0()
0()
0()
0()
0()
0()
0()
0()
0()
0()
0()
0()
0()
0()
0()
0()
1((9.5358e-08 4.25433e-11 -2.25462e-19))
1((-9.5358e-08 -4.25433e-11 2.25462e-19))
3((-1.36505e-08 -3.11814e-07 4.14821e-20) (0 0 0) (0 0 0))
1((0 0 0))
1((0 0 0))
2{(0 0 0)}
1((0 0 0))
1((2.31425e-10 1.38875e-12 -1.27096e-20))
2((-2.31425e-10 -1.38875e-12 1.27096e-20) (1.07039e-08 -3.71218e-11 8.3118e-21))
2((-1.07039e-08 3.71218e-11 -8.3118e-21) (-1.07768e-08 2.65534e-11 -5.17338e-20))
2((1.07768e-08 -2.65534e-11 5.17338e-20) (5.95796e-09 1.53015e-11 4.6992e-20))
2((2.20643e-10 -1.1288e-11 -2.03923e-20) (-5.95796e-09 -1.53015e-11 -4.6992e-20))
2((-2.20643e-10 1.1288e-11 2.03923e-20) (-3.92195e-09 3.02323e-11 4.02265e-21))
2((5.22068e-09 1.4281e-12 2.14025e-21) (3.92195e-09 -3.02323e-11 -4.02265e-21))
2((-5.22068e-09 -1.4281e-12 -2.14025e-21) (-4.59528e-10 1.55753e-12 1.04928e-21))
2((4.59528e-10 -1.55753e-12 -1.04928e-21) (-2.55059e-09 9.46982e-13 -2.97916e-21))
2((2.55059e-09 -9.46982e-13 2.97916e-21) (1.71843e-09 4.53251e-13 4.11813e-21))
2((-1.71843e-09 -4.53251e-13 -4.11813e-21) (-5.88504e-10 1.81485e-13 -3.27478e-21))
2((5.88504e-10 -1.81485e-13 3.27478e-21) (2.50713e-10 -5.18251e-14 2.02124e-21))
2((-3.514e-10 -1.52612e-14 -3.2135e-21) (-2.50713e-10 5.18251e-14 -2.02124e-21))
2((3.514e-10 1.52612e-14 3.2135e-21) (4.73856e-10 4.43783e-14 5.81194e-21))
2((-4.73856e-10 -4.43783e-14 -5.81194e-21) (-1.89204e-10 4.07824e-14 -7.05814e-21))
2((1.89204e-10 -4.07824e-14 7.05814e-21) (-2.43932e-11 -6.13675e-15 3.73512e-21))
2((5.90131e-11 -8.13102e-15 -3.27854e-21) (2.43932e-11 6.13675e-15 -3.73512e-21))
2((-5.90131e-11 8.13102e-15 3.27854e-21) (-7.50686e-11 6.3721e-15 2.86436e-21))
2((6.13726e-11 -6.8359e-15 -8.52029e-22) (7.50686e-11 -6.3721e-15 -2.86436e-21))
2((-6.13726e-11 6.8359e-15 8.52029e-22) (-2.01337e-12 -2.64579e-15 -3.67057e-21))
2((2.01337e-12 2.64579e-15 3.67057e-21) (1.67949e-11 -6.98687e-15 -5.95244e-22))
2((-1.67949e-11 6.98687e-15 5.95244e-22) (-2.56195e-11 8.6553e-17 -3.95213e-21))
2((2.56195e-11 -8.6553e-17 3.95213e-21) (1.86942e-11 1.78666e-15 8.40578e-22))
2((-1.86942e-11 -1.78666e-15 -8.40578e-22) (-3.71731e-11 1.80134e-15 -3.55205e-21))
2((3.71731e-11 -1.80134e-15 3.55205e-21) (-2.87737e-15 3.16014e-17 -4.25354e-22))
2((1.23047e-11 -1.32762e-17 5.03136e-21) (2.87737e-15 -3.16014e-17 4.25354e-22))
2((-1.23047e-11 1.32762e-17 -5.03136e-21) (-3.37301e-11 1.01095e-15 -5.91261e-21))
2((2.564e-11 2.93441e-16 6.22597e-21) (3.37301e-11 -1.01095e-15 5.91261e-21))
2((-2.564e-11 -2.93441e-16 -6.22597e-21) (8.76962e-12 9.10281e-17 1.03224e-21))
2((-8.76962e-12 -9.10281e-17 -1.03224e-21) (4.10534e-11 1.20859e-15 8.60891e-21))
2((-4.10534e-11 -1.20859e-15 -8.60891e-21) (-2.60759e-10 3.23189e-14 -5.27786e-20))
1((2.60759e-10 -3.23189e-14 5.27786e-20))
1((5.49096e-11 -2.12422e-15 -4.16137e-21))
2((-5.49096e-11 2.12422e-15 4.16137e-21) (1.95308e-11 -2.47803e-16 -1.03627e-20))
1((-1.95308e-11 2.47803e-16 1.03627e-20))
0()
0()
0()
0()
0()
0()
0()
0()
0()
0()
0()
0()
0()
0()
0()
0()
0()
0()
0()
0()
0()
0()
0()
0()
0()
0()
0()
0()
0()
1((5.09743e-08 1.19337e-06 4.52555e-18))
1((0 0 0))
3((8.44705e-09 -3.37913e-07 3.5802e-20) (1.36505e-08 3.11814e-07 -4.14821e-20) (0 0 0))
2((-1.36733e-09 -2.22018e-07 -2.25837e-20) (0 0 0))
1((0 0 0))
1((7.91613e-09 -1.77499e-11 -3.90464e-20))
3((3.30145e-10 7.5003e-08 1.691e-20) (1.94741e-08 1.47732e-10 1.90899e-19) (-7.91613e-09 1.77499e-11 3.90464e-20))
2((-1.94741e-08 -1.47732e-10 -1.90899e-19) (-5.60458e-08 -4.38591e-11 -1.92023e-19))
2((5.60458e-08 4.38591e-11 1.92023e-19) (3.97438e-08 -8.04725e-11 1.28421e-19))
2((-3.97438e-08 8.04725e-11 -1.28421e-19) (-1.68023e-08 1.4197e-11 -6.27951e-20))
2((1.64191e-08 5.78046e-12 1.14089e-20) (1.68023e-08 -1.4197e-11 6.27951e-20))
2((-1.64191e-08 -5.78046e-12 -1.14089e-20) (7.23715e-09 -3.54707e-12 4.01659e-21))
3((3.51699e-09 -3.0125e-13 -1.29775e-20) (-7.23715e-09 3.54707e-12 -4.01659e-21) (0 0 0))
3((-3.51699e-09 3.0125e-13 1.29775e-20) (-1.92163e-09 -3.56477e-13 6.85839e-21) (0 0 0))
2((1.92163e-09 3.56477e-13 -6.85839e-21) (-3.94925e-10 1.60091e-13 3.15984e-21))
2((-8.87319e-08 2.52686e-12 -1.84009e-21) (3.94925e-10 -1.60091e-13 -3.15984e-21))
2((8.87319e-08 -2.52686e-12 1.84009e-21) (2.97415e-09 -6.29859e-13 -2.85347e-23))
2((-2.97415e-09 6.29859e-13 2.85347e-23) (-4.57374e-11 -1.23206e-08 -1.1281e-20))
1((4.41765e-10 -5.57852e-14 1.30874e-21))
2((-4.41765e-10 5.57852e-14 -1.30874e-21) (3.54964e-10 -1.31651e-14 -1.2198e-21))
2((-3.54964e-10 1.31651e-14 1.2198e-21) (1.83167e-10 -1.75978e-14 1.06093e-21))
2((-1.83167e-10 1.75978e-14 -1.06093e-21) (-5.88846e-10 -4.82269e-15 4.95456e-23))
2((5.88846e-10 4.82269e-15 -4.95456e-23) (3.26994e-10 -4.65142e-14 -2.69835e-22))
2((-3.26994e-10 4.65142e-14 2.69835e-22) (1.623e-10 1.32542e-14 2.68771e-21))
2((-1.623e-10 -1.32542e-14 -2.68771e-21) (-9.24411e-11 1.20757e-14 8.91731e-24))
2((9.24411e-11 -1.20757e-14 -8.91731e-24) (-1.87605e-11 7.06732e-18 5.05972e-21))
2((-1.42553e-11 7.01213e-16 -9.2045e-21) (1.87605e-11 -7.06732e-18 -5.05972e-21))
2((1.42553e-11 -7.01213e-16 9.2045e-21) (2.91514e-12 -1.23163e-16 1.15175e-21))
2((-2.91514e-12 1.23163e-16 -1.15175e-21) (-5.10467e-12 -2.10013e-16 -1.0146e-20))
2((5.10467e-12 2.10013e-16 1.0146e-20) (5.65629e-12 4.24635e-16 8.50717e-24))
1((-5.65629e-12 -4.24635e-16 -8.50717e-24))
0()
0()
1((-1.76662e-12 -6.83527e-18 -7.86728e-22))
1((1.76662e-12 6.83527e-18 7.86728e-22))
0()
0()
0()
0()
1((2.88767e-11 2.26722e-15 3.08872e-21))
2((2.85044e-12 -1.56678e-16 1.47668e-21) (-2.88767e-11 -2.26722e-15 -3.08872e-21))
1((-2.85044e-12 1.56678e-16 -1.47668e-21))
0()
0()
0()
0()
0()
1((-2.0586e-11 -1.9601e-15 -7.46365e-22))
1((2.0586e-11 1.9601e-15 7.46365e-22))
0()
0()
0()
0()
0()
0()
0()
0()
0()
0()
0()
0()
1((4.75947e-10 -1.34249e-15 3.21654e-20))
1((-4.75947e-10 1.34249e-15 -3.21654e-20))
0()
0()
0()
0()
0()
0()
0()
0()
2((2.45684e-08 -2.91576e-07 1.66432e-19) (-5.09743e-08 -1.19337e-06 -4.52555e-18))
0()
3((-1.05089e-10 9.41365e-09 1.7655e-20) (-8.44705e-09 3.37913e-07 -3.5802e-20) (-5.6495e-08 -7.90014e-11 1.10666e-20))
3((1.9171e-10 -2.61715e-08 2.02587e-20) (1.36733e-09 2.22018e-07 2.25837e-20) (5.6495e-08 7.90014e-11 -1.10666e-20))
1((5.74692e-10 -9.52148e-08 -2.19343e-21))
1((-2.78969e-10 4.8092e-08 4.34427e-21))
3((-2.40284e-11 4.90796e-09 2.26441e-20) (-3.30145e-10 -7.5003e-08 -1.691e-20) (-2.77369e-08 -7.29592e-11 -1.19106e-20))
2((2.77369e-08 7.29592e-11 1.19106e-20) (-5.12914e-08 -8.0994e-11 3.01587e-20))
2((5.12914e-08 8.0994e-11 -3.01587e-20) (1.00522e-08 1.21697e-12 -2.55104e-20))
2((-3.3526e-09 5.14162e-12 1.94177e-20) (-1.00522e-08 -1.21697e-12 2.55104e-20))
2((-1.31729e-08 -3.18176e-12 -5.69214e-21) (3.3526e-09 -5.14162e-12 -1.94177e-20))
2((1.49864e-08 -4.39557e-12 2.29061e-22) (1.31729e-08 3.18176e-12 5.69214e-21))
3((-1.49864e-08 4.39557e-12 -2.29061e-22) (2.21569e-08 -3.95579e-12 2.3276e-21) (0 0 0))
3((7.65056e-09 -2.72488e-13 -2.76931e-21) (-2.21569e-08 3.95579e-12 -2.3276e-21) (0 0 0))
3((-7.65056e-09 2.72488e-13 2.76931e-21) (-2.49379e-08 1.63552e-12 2.81911e-20) (0 0 0))
2((2.49379e-08 -1.63552e-12 -2.81911e-20) (3.53846e-08 -4.17109e-12 -4.20492e-20))
3((-3.53846e-08 4.17109e-12 4.20492e-20) (-9.04363e-09 1.05592e-12 6.50333e-20) (-1.41058e-10 2.60383e-08 3.04117e-21))
3((9.04363e-09 -1.05592e-12 -6.50333e-20) (2.27881e-09 -2.33379e-13 -2.94052e-20) (4.57374e-11 1.23206e-08 1.1281e-20))
2((-2.27881e-09 2.33379e-13 2.94052e-20) (-3.24817e-09 1.04702e-13 2.03933e-21))
2((3.24817e-09 -1.04702e-13 -2.03933e-21) (3.01354e-09 -6.49273e-14 1.67695e-21))
2((-3.01354e-09 6.49273e-14 -1.67695e-21) (-4.70976e-10 3.10612e-14 1.8098e-22))
2((4.70976e-10 -3.10612e-14 -1.8098e-22) (-3.99366e-10 2.53725e-14 3.15426e-22))
2((1.49669e-10 -6.96481e-15 -3.6145e-22) (3.99366e-10 -2.53725e-14 -3.15426e-22))
2((-1.49669e-10 6.96481e-15 3.6145e-22) (6.84203e-12 -5.82251e-17 9.41927e-22))
1((-6.84203e-12 5.82251e-17 -9.41927e-22))
0()
0()
0()
0()
0()
0()
1((-2.0787e-12 6.73255e-17 -1.14669e-23))
1((2.0787e-12 -6.73255e-17 1.14669e-23))
0()
0()
0()
0()
1((-8.39474e-12 3.70289e-16 -1.3736e-22))
2((-2.40015e-11 8.67066e-16 -3.96049e-22) (8.39474e-12 -3.70289e-16 1.3736e-22))
2((2.40015e-11 -8.67066e-16 3.96049e-22) (-5.72525e-12 -6.40267e-16 9.12927e-23))
2((5.72525e-12 6.40267e-16 -9.12927e-23) (-6.6758e-13 -6.47789e-17 -8.01942e-24))
2((6.6758e-13 6.47789e-17 8.01942e-24) (1.25535e-11 6.24346e-16 -8.33827e-23))
2((-1.25535e-11 -6.24346e-16 8.33827e-23) (6.47724e-12 7.61565e-16 2.98733e-23))
2((-6.47724e-12 -7.61565e-16 -2.98733e-23) (-2.1861e-11 8.56468e-16 7.43221e-23))
2((2.1861e-11 -8.56468e-16 -7.43221e-23) (-4.74514e-12 2.08493e-16 -1.91133e-22))
2((4.74514e-12 -2.08493e-16 1.91133e-22) (5.1082e-11 -2.39606e-16 2.18283e-22))
2((-5.1082e-11 2.39606e-16 -2.18283e-22) (-4.87956e-11 2.27374e-15 -2.66288e-22))
2((4.87956e-11 -2.27374e-15 2.66288e-22) (-4.06623e-11 2.29582e-15 2.3302e-22))
2((4.06623e-11 -2.29582e-15 -2.3302e-22) (1.1583e-10 5.20253e-15 -4.15616e-23))
2((-1.1583e-10 -5.20253e-15 4.15616e-23) (-7.76375e-11 -8.44184e-16 -9.1058e-23))
2((7.76375e-11 8.44184e-16 9.1058e-23) (-1.65892e-11 -3.65131e-15 4.06201e-23))
2((1.65892e-11 3.65131e-15 -4.06201e-23) (1.0703e-10 -1.58204e-14 3.17038e-23))
1((-1.0703e-10 1.58204e-14 -3.17038e-23))
0()
0()
1((-2.32849e-10 -9.3324e-15 3.14481e-22))
2((2.32849e-10 9.3324e-15 -3.14481e-22) (1.57069e-10 9.46841e-16 1.50894e-23))
1((-1.57069e-10 -9.46841e-16 -1.50894e-23))
1((3.97845e-10 -1.00538e-14 -4.19595e-24))
2((-3.97845e-10 1.00538e-14 4.19595e-24) (-2.58872e-10 8.50145e-15 3.00036e-22))
2((2.17141e-10 2.13325e-14 2.2736e-22) (2.58872e-10 -8.50145e-15 -3.00036e-22))
2((-2.17141e-10 -2.13325e-14 -2.2736e-22) (8.08318e-11 -2.78009e-17 4.08307e-23))
2((-8.08318e-11 2.78009e-17 -4.08307e-23) (-4.87902e-10 2.72333e-14 -7.31289e-22))
2((-4.98009e-11 4.95972e-16 -9.07684e-22) (4.87902e-10 -2.72333e-14 7.31289e-22))
1((4.98009e-11 -4.95972e-16 9.07684e-22))
0()
0()
0()
0()
0()
0()
2((0 0 0) (-2.45684e-08 2.91576e-07 -1.66432e-19))
2((0 0 0) (-4.09652e-08 -1.25461e-10 5.50256e-20))
3((6.26848e-10 7.26296e-08 -4.85396e-20) (1.05089e-10 -9.41365e-09 -1.7655e-20) (4.09652e-08 1.25461e-10 -5.50256e-20))
3((-3.95794e-08 5.73946e-11 5.21268e-21) (-4.93254e-10 -6.71611e-08 -3.7726e-20) (-1.9171e-10 2.61715e-08 -2.02587e-20))
3((3.95794e-08 -5.73946e-11 -5.21268e-21) (2.83463e-10 3.14125e-08 -9.00021e-21) (-5.74692e-10 9.52148e-08 2.19343e-21))
3((0 0 0) (-1.45695e-09 -1.74373e-07 3.15782e-21) (2.78969e-10 -4.8092e-08 -4.34427e-21))
4((0 0 0) (0 0 0) (2.40284e-11 -4.90796e-09 -2.26441e-20) (-2.51258e-10 -3.03369e-08 -1.18735e-20))
2((3.05253e-08 3.65188e-11 -1.99719e-21) (0 0 0))
2((6.84075e-09 -8.406e-12 1.55196e-20) (-3.05253e-08 -3.65188e-11 1.99719e-21))
2((-6.84075e-09 8.406e-12 -1.55196e-20) (2.25538e-09 6.5568e-12 -9.22159e-21))
2((-2.25538e-09 -6.5568e-12 9.22159e-21) (-8.86129e-09 -3.10237e-12 5.57075e-21))
2((2.50122e-09 -9.45544e-12 -2.41424e-22) (8.86129e-09 3.10237e-12 -5.57075e-21))
2((6.97821e-09 2.01678e-13 2.04395e-22) (-2.50122e-09 9.45544e-12 2.41424e-22))
2((-6.97821e-09 -2.01678e-13 -2.04395e-22) (-4.8887e-09 3.02741e-12 -2.68101e-21))
3((4.8887e-09 -3.02741e-12 2.68101e-21) (1.32831e-08 -3.93837e-12 -2.47614e-20) (0 0 0))
3((-1.32831e-08 3.93837e-12 2.47614e-20) (-2.72465e-08 7.63451e-13 7.51071e-20) (1.58729e-10 2.03637e-08 7.12458e-22))
3((2.72465e-08 -7.63451e-13 -7.51071e-20) (5.55938e-08 -1.09653e-11 -5.29728e-20) (1.41058e-10 -2.60383e-08 -3.04117e-21))
3((-5.55938e-08 1.09653e-11 5.29728e-20) (-1.90599e-08 1.41902e-12 3.12779e-20) (8.09201e-11 1.04313e-08 -1.65578e-21))
2((1.8453e-08 -2.25001e-12 -6.26086e-21) (1.90599e-08 -1.41902e-12 -3.12779e-20))
3((-5.07761e-09 -2.42662e-13 1.50202e-21) (-1.8453e-08 2.25001e-12 6.26086e-21) (7.54833e-11 9.79556e-09 -4.7863e-22))
2((2.23594e-09 -6.94084e-14 -2.21824e-21) (5.07761e-09 2.42662e-13 -1.50202e-21))
2((-5.09844e-10 1.62717e-13 8.26958e-22) (-2.23594e-09 6.94084e-14 2.21824e-21))
2((5.09844e-10 -1.62717e-13 -8.26958e-22) (-1.55999e-10 7.674e-14 2.11776e-21))
2((1.55999e-10 -7.674e-14 -2.11776e-21) (1.85799e-11 4.53616e-15 -3.04241e-21))
2((8.10532e-11 3.00662e-14 1.88621e-21) (-1.85799e-11 -4.53616e-15 3.04241e-21))
2((-8.10532e-11 -3.00662e-14 -1.88621e-21) (-2.24142e-11 2.46857e-15 -1.65765e-21))
2((-1.21099e-11 3.22643e-14 2.38716e-21) (2.24142e-11 -2.46857e-15 1.65765e-21))
2((1.21099e-11 -3.22643e-14 -2.38716e-21) (1.23679e-11 3.70313e-15 -2.40228e-21))
2((-1.23679e-11 -3.70313e-15 2.40228e-21) (-5.97736e-12 1.22443e-14 2.31195e-21))
2((5.97736e-12 -1.22443e-14 -2.31195e-21) (4.03069e-13 2.91062e-14 -1.49934e-21))
2((-4.03069e-13 -2.91062e-14 1.49934e-21) (5.47688e-12 6.03866e-14 -2.02766e-22))
2((-7.04364e-12 1.36512e-14 2.01646e-21) (-5.47688e-12 -6.03866e-14 2.02766e-22))
2((7.04364e-12 -1.36512e-14 -2.01646e-21) (1.71929e-12 9.54619e-14 -2.34136e-21))
2((-1.71929e-12 -9.54619e-14 2.34136e-21) (1.66185e-12 -1.88715e-18 2.17236e-21))
2((-1.66185e-12 1.88715e-18 -2.17236e-21) (-4.95285e-12 9.394e-17 -2.08184e-21))
2((4.95285e-12 -9.394e-17 2.08184e-21) (6.36828e-12 -2.04509e-16 1.50082e-21))
2((-6.36828e-12 2.04509e-16 -1.50082e-21) (-1.21216e-12 -2.80113e-16 -9.95756e-22))
2((1.21216e-12 2.80113e-16 9.95756e-22) (4.57781e-12 -6.27222e-18 1.46422e-22))
2((-4.57781e-12 6.27222e-18 -1.46422e-22) (-9.77554e-12 4.11434e-16 8.401e-22))
2((9.77554e-12 -4.11434e-16 -8.401e-22) (7.03323e-13 -5.82538e-17 -1.70603e-21))
2((-7.03323e-13 5.82538e-17 1.70603e-21) (1.21904e-11 2.03404e-16 2.07317e-21))
2((-1.21904e-11 -2.03404e-16 -2.07317e-21) (-1.30619e-11 2.87103e-17 -1.829e-21))
2((1.30619e-11 -2.87103e-17 1.829e-21) (2.77503e-12 2.69643e-18 1.68399e-21))
2((-2.77503e-12 -2.69643e-18 -1.68399e-21) (1.13491e-11 -1.87272e-16 -1.51579e-21))
2((-1.13491e-11 1.87272e-16 1.51579e-21) (-1.99046e-11 7.90469e-16 1.0485e-21))
2((1.99046e-11 -7.90469e-16 -1.0485e-21) (1.14276e-11 6.82802e-16 -4.92936e-22))
2((-1.14276e-11 -6.82802e-16 4.92936e-22) (7.52059e-12 1.1187e-15 -1.36338e-22))
2((-7.52059e-12 -1.1187e-15 1.36338e-22) (-2.09478e-11 3.09086e-15 5.10633e-22))
2((2.09478e-11 -3.09086e-15 -5.10633e-22) (2.31392e-11 -8.01952e-17 -3.7966e-22))
2((-2.31392e-11 8.01952e-17 3.7966e-22) (-1.9331e-11 -3.88834e-16 3.1834e-22))
2((1.9331e-11 3.88834e-16 -3.1834e-22) (1.98336e-12 2.66318e-16 -4.90431e-22))
2((-1.98336e-12 -2.66318e-16 4.90431e-22) (2.65151e-11 8.35761e-16 5.13565e-22))
2((-2.65151e-11 -8.35761e-16 -5.13565e-22) (-3.50949e-11 3.73439e-15 -3.80094e-22))
2((3.50949e-11 -3.73439e-15 3.80094e-22) (3.43955e-11 2.77785e-15 1.88615e-23))
2((-3.43955e-11 -2.77785e-15 -1.88615e-23) (-2.74839e-11 3.04519e-15 -1.44697e-22))
1((2.74839e-11 -3.04519e-15 1.44697e-22))
0()
0()
0()
0()
0()
0()
0()
0()
0()
0()
0()
0()
0()
0()
0()
1((1.94028e-10 2.38919e-08 -2.74108e-19))
1((4.13851e-11 6.72555e-09 6.24448e-20))
2((-6.26848e-10 -7.26296e-08 4.85396e-20) (-9.94177e-11 -4.70948e-08 2.16077e-20))
2((1.52067e-11 -3.23931e-09 2.31917e-20) (4.93254e-10 6.71611e-08 3.7726e-20))
3((5.4744e-11 1.8992e-08 5.36575e-20) (-2.83463e-10 -3.14125e-08 9.00021e-21) (0 0 0))
3((1.45695e-09 1.74373e-07 -3.15782e-21) (-7.07282e-11 -5.40729e-08 1.78418e-20) (0 0 0))
3((3.23916e-11 1.3685e-08 2.22041e-20) (2.51258e-10 3.03369e-08 1.18735e-20) (0 0 0))
2((3.72903e-11 4.09652e-08 3.16448e-21) (0 0 0))
1((1.88444e-09 2.07939e-12 -8.71759e-21))
2((-1.88444e-09 -2.07939e-12 8.71759e-21) (-2.767e-09 1.61934e-12 -1.28377e-21))
2((2.767e-09 -1.61934e-12 1.28377e-21) (-1.57164e-09 -5.46428e-13 -1.23441e-20))
2((-9.2428e-09 1.21479e-12 -1.27638e-21) (1.57164e-09 5.46428e-13 1.23441e-20))
2((1.13159e-09 1.53269e-13 4.64345e-23) (9.2428e-09 -1.21479e-12 1.27638e-21))
3((-5.46843e-10 -4.15486e-13 -9.74772e-22) (-1.13159e-09 -1.53269e-13 -4.64345e-23) (1.24506e-12 1.39583e-09 1.05825e-22))
2((5.46843e-10 4.15486e-13 9.74772e-22) (3.00845e-10 6.81153e-15 3.01552e-23))
3((-1.38544e-08 1.98048e-12 -8.42546e-22) (-3.00845e-10 -6.81153e-15 -3.01552e-23) (-1.58729e-10 -2.03637e-08 -7.12458e-22))
2((1.38544e-08 -1.98048e-12 8.42546e-22) (3.90852e-09 5.4976e-13 -4.3852e-22))
3((-3.90852e-09 -5.4976e-13 4.3852e-22) (3.94131e-08 -5.79792e-12 6.81474e-22) (-8.09201e-11 -1.04313e-08 1.65578e-21))
3((-1.66506e-08 5.98192e-13 8.90636e-22) (-3.94131e-08 5.79792e-12 -6.81474e-22) (7.99205e-12 9.10801e-09 -7.39772e-23))
3((1.45107e-08 -5.73007e-13 -2.43065e-21) (1.66506e-08 -5.98192e-13 -8.90636e-22) (-7.54833e-11 -9.79556e-09 4.7863e-22))
2((-7.20649e-09 8.5115e-14 1.57879e-21) (-1.45107e-08 5.73007e-13 2.43065e-21))
2((2.76059e-09 -3.45029e-13 8.74315e-23) (7.20649e-09 -8.5115e-14 -1.57879e-21))
2((-2.76059e-09 3.45029e-13 -8.74315e-23) (-5.70094e-10 2.89857e-14 -7.17374e-22))
2((5.70094e-10 -2.89857e-14 7.17374e-22) (-2.57571e-10 -3.49401e-14 1.31225e-21))
2((1.62871e-10 4.24242e-14 -1.16055e-21) (2.57571e-10 3.49401e-14 -1.31225e-21))
2((-1.62871e-10 -4.24242e-14 1.16055e-21) (1.8019e-10 -9.12881e-15 1.81384e-21))
2((-9.51305e-11 4.31543e-14 -2.75032e-21) (-1.8019e-10 9.12881e-15 -1.81384e-21))
2((9.51305e-11 -4.31543e-14 2.75032e-21) (1.8796e-11 3.44331e-14 7.73757e-22))
2((-1.8796e-11 -3.44331e-14 -7.73757e-22) (1.27142e-11 3.00033e-14 -2.02179e-21))
2((-1.27142e-11 -3.00033e-14 2.02179e-21) (-1.42545e-11 1.12843e-14 1.62282e-21))
2((1.42545e-11 -1.12843e-14 -1.62282e-21) (4.24635e-12 -1.27318e-14 2.78626e-23))
2((-5.35572e-13 -2.0751e-17 -2.59965e-22) (-4.24635e-12 1.27318e-14 -2.78626e-23))
2((5.35572e-13 2.0751e-17 2.59965e-22) (5.33304e-13 -4.4089e-17 3.2988e-22))
2((-5.33304e-13 4.4089e-17 -3.2988e-22) (-8.61027e-13 4.07137e-17 -3.82298e-22))
2((8.61027e-13 -4.07137e-17 3.82298e-22) (-1.44025e-12 2.81938e-17 2.93093e-22))
2((1.44025e-12 -2.81938e-17 -2.93093e-22) (-6.08075e-12 5.15616e-16 -1.02761e-22))
2((6.08075e-12 -5.15616e-16 1.02761e-22) (1.46393e-11 1.80974e-16 -2.08331e-22))
2((-1.46393e-11 -1.80974e-16 2.08331e-22) (1.31465e-10 1.26906e-16 2.44768e-22))
3((-1.31465e-10 -1.26906e-16 -2.44768e-22) (1.23477e-10 -1.96388e-15 -1.21165e-22) (0 0 0))
2((-1.23477e-10 1.96388e-15 1.21165e-22) (4.16666e-11 -1.49173e-15 3.21921e-22))
2((-4.16666e-11 1.49173e-15 -3.21921e-22) (-8.1243e-11 -1.06933e-15 -4.9368e-22))
2((8.1243e-11 1.06933e-15 4.9368e-22) (4.56596e-11 2.9325e-16 5.82548e-22))
2((-4.56596e-11 -2.9325e-16 -5.82548e-22) (-4.95651e-12 8.53292e-17 -6.23297e-22))
2((-6.36248e-11 -3.23612e-15 2.94716e-22) (4.95651e-12 -8.53292e-17 6.23297e-22))
2((6.36248e-11 3.23612e-15 -2.94716e-22) (1.67494e-10 -8.20234e-15 -7.00127e-23))
2((-1.67494e-10 8.20234e-15 7.00127e-23) (-6.9593e-11 -1.40853e-15 2.20355e-22))
2((6.9593e-11 1.40853e-15 -2.20355e-22) (-2.60495e-10 -1.64691e-15 -1.59023e-22))
2((2.60495e-10 1.64691e-15 1.59023e-22) (1.32811e-10 -2.16371e-15 -2.57629e-22))
2((-1.32811e-10 2.16371e-15 2.57629e-22) (2.62546e-10 -3.5619e-15 9.26863e-22))
3((-2.62546e-10 3.5619e-15 -9.26863e-22) (-3.03728e-10 -9.1109e-15 -1.48474e-21) (0 0 0))
2((3.03728e-10 9.1109e-15 1.48474e-21) (1.70999e-10 -7.78245e-16 3.31009e-22))
2((-1.70999e-10 7.78245e-16 -3.31009e-22) (-6.36426e-11 -1.31487e-15 5.09421e-22))
2((6.36426e-11 1.31487e-15 -5.09421e-22) (3.48425e-11 1.5996e-15 -1.00989e-22))
2((-3.48425e-11 -1.5996e-15 1.00989e-22) (1.00165e-10 5.84522e-15 -6.00582e-22))
2((-1.00165e-10 -5.84522e-15 6.00582e-22) (-3.01209e-10 -2.41847e-15 4.55636e-22))
2((3.01209e-10 2.41847e-15 -4.55636e-22) (2.53004e-10 -5.76459e-15 1.37474e-21))
2((-2.53004e-10 5.76459e-15 -1.37474e-21) (3.72073e-10 8.15513e-15 -2.50091e-21))
2((-3.72073e-10 -8.15513e-15 2.50091e-21) (-5.34963e-10 3.67365e-15 7.20802e-22))
2((5.34963e-10 -3.67365e-15 -7.20802e-22) (1.48635e-10 4.71937e-15 9.92493e-22))
2((-1.48635e-10 -4.71937e-15 -9.92493e-22) (-1.85184e-10 9.5773e-15 -1.42414e-21))
2((1.85184e-10 -9.5773e-15 1.42414e-21) (4.70121e-10 1.08892e-14 6.39521e-22))
2((-4.70121e-10 -1.08892e-14 -6.39521e-22) (-1.31374e-10 -9.59881e-16 4.74676e-22))
2((1.31374e-10 9.59881e-16 -4.74676e-22) (5.52423e-10 -1.54196e-14 2.33857e-21))
2((-5.52423e-10 1.54196e-14 -2.33857e-21) (1.20518e-09 -8.8762e-15 -5.26061e-21))
2((-1.20518e-09 8.8762e-15 5.26061e-21) (-1.39987e-09 9.22314e-15 5.7229e-21))
2((1.39987e-09 -9.22314e-15 -5.7229e-21) (-6.92493e-10 2.24797e-15 3.35659e-22))
1((6.92493e-10 -2.24797e-15 -3.35659e-22))
0()
0()
0()
0()
1((-1.94028e-10 -2.38919e-08 2.74108e-19))
2((-6.8109e-10 9.07554e-08 -2.43026e-21) (-4.13851e-11 -6.72555e-09 -6.24448e-20))
2((-1.07377e-11 7.18764e-10 -1.05796e-20) (9.94177e-11 4.70948e-08 -2.16077e-20))
2((-1.0962e-11 1.63777e-08 -1.08867e-20) (-1.52067e-11 3.23931e-09 -2.31917e-20))
2((2.73543e-12 5.71784e-08 -2.47255e-20) (-5.4744e-11 -1.8992e-08 -5.36575e-20))
2((9.14031e-12 2.00611e-08 1.44477e-21) (7.07282e-11 5.40729e-08 -1.78418e-20))