/*--------------------------------*- C++ -*----------------------------------*\
  =========                 |
  \\      /  F ield         | OpenFOAM: The Open Source CFD Toolbox
   \\    /   O peration     | Website:  https://openfoam.org
    \\  /    A nd           | Version:  8
     \\/     M anipulation  |
\*---------------------------------------------------------------------------*/
FoamFile
{
    version     2.0;
    format      ascii;
    class       vectorFieldField;
    location    "0/lagrangian/kinematicCloud";
    object      collisionRecordsWallPRel;
}
// * * * * * * * * * * * * * * * * * * * * * * * * * * * * * * * * * * * * * //


3300
(
0()
0()
0()
0()
0()
0()
0()
0()
0()
0()
0()
0()
0()
0()
0()
0()
0()
0()
0()
0()
0()
0()
0()
0()
0()
0()
0()
0()
0()
0()
0()
0()
0()
0()
1((0 0 0.003))
1((0 0 0.003))
0()
0()
1((0 1.38778e-17 0.003))
0()
0()
0()
1((0 0 0.003))
0()
0()
1((0 0 0.003))
0()
0()
1((0 0 0.003))
1((0 0 0.003))
0()
1((0 0 0.003))
0()
0()
1((0 0 0.003))
0()
0()
1((0 0 0.003))
1((0 0 0.003))
0()
0()
1((0 0 0.003))
0()
0()
0()
1((0 0 0.003))
0()
0()
1((0 0 0.003))
0()
0()
0()
1((0 0 0.003))
0()
0()
1((0 0 0.003))
0()
0()
1((0 0 0.003))
1((0 0 0.003))
0()
1((0 0 0.003))
1((0 0 0.003))
0()
1((-3.46945e-18 0 0.003))
0()
1((0 0 0.003))
0()
0()
1((0 0 0.003))
0()
1((0 0 0.003))
0()
1((0 0 0.003))
0()
0()
1((3.46945e-18 0 0.003))
0()
1((0 0 0.003))
0()
1((0 0 0.003))
0()
1((0 0 0.003))
0()
0()
0()
1((0 0 0.003))
1((0 0 0.003))
0()
1((3.46945e-18 0 0.003))
1((0 0 0.003))
0()
0()
1((0 0 0.003))
1((0 0 0.003))
0()
0()
1((0 0 0.003))
0()
0()
0()
1((0 0 0.003))
1((0 0 0.003))
0()
0()
1((3.46945e-18 0 0.003))
0()
0()
1((0 0 0.003))
1((0 0 0.003))
0()
0()
0()
0()
0()
0()
1((0 0 0.003))
1((-3.46945e-18 0 0.003))
0()
0()
0()
0()
0()
0()
1((0 0 0.003))
0()
0()
0()
0()
0()
0()
0()
0()
0()
0()
0()
0()
0()
0()
0()
0()
0()
0()
1((3.46945e-18 0 0.003))
1((-3.46945e-18 0 0.003))
0()
0()
0()
0()
0()
0()
0()
0()
0()
0()
0()
1((0 0 0.003))
0()
1((0 0 0.003))
0()
0()
1((0 0 0.003))
1((0 0 0.003))
0()
0()
1((0 0 0.003))
1((0 0 0.003))
0()
0()
0()
0()
0()
1((0 0 0.003))
0()
0()
1((0 0 0.003))
0()
0()
0()
1((0 0 0.003))
0()
0()
0()
0()
0()
0()
0()
0()
0()
0()
0()
0()
0()
0()
0()
0()
0()
0()
0()
0()
0()
0()
0()
0()
0()
0()
0()
0()
0()
0()
0()
0()
0()
0()
0()
0()
1((0 0 0.003))
1((0 0 0.003))
0()
0()
0()
0()
0()
0()
0()
0()
0()
0()
1((6.93889e-18 0 0.003))
1((0 0 0.003))
0()
1((0 0 0.003))
1((0 0 0.003))
0()
0()
1((0 0 0.003))
1((-6.93889e-18 0 0.003))
0()
0()
1((0 0 0.003))
0()
0()
1((0 0 0.003))
1((0 0 0.003))
0()
1((0 0 0.003))
1((0 0 0.003))
0()
0()
1((0 0 0.003))
1((0 0 0.003))
0()
0()
0()
1((0 0 0.003))
0()
0()
0()
1((0 0 0.003))
1((0 0 0.003))
0()
0()
0()
0()
0()
0()
1((0 0 0.003))
1((0 0 0.003))
0()
0()
1((0 0 0.003))
0()
0()
1((0 0 0.003))
0()
0()
0()
0()
0()
0()
1((0 0 0.003))
0()
0()
1((0 0 0.003))
0()
0()
0()
0()
0()
0()
0()
1((0 0 0.003))
0()
0()
1((0 0 0.003))
0()
0()
0()
0()
0()
1((0 0 0.003))
0()
0()
1((0 0 0.003))
0()
0()
1((0 0 0.003))
0()
0()
0()
0()
0()
0()
0()
0()
0()
0()
0()
0()
0()
0()
0()
0()
0()
0()
0()
0()
0()
0()
0()
0()
0()
0()
0()
0()
0()
0()
0()
0()
0()
0()
0()
0()
0()
0()
0()
0()
0()
0()
0()
0()
0()
0()
0()
0()
0()
0()
0()
0()
0()
0()
0()
0()
0()
0()
0()
0()
0()
0()
1((0 0 0.003))
0()
1((0 0 0.003))
1((0 1.38778e-17 0.003))
0()
0()
1((0 0 0.003))
0()
0()
0()
0()
1((0 0 0.003))
0()
1((0 0 0.003))
0()
0()
1((0 0 0.003))
0()
0()
0()
0()
0()
0()
0()
0()
0()
0()
0()
0()
0()
0()
0()
1((0 0 0.003))
0()
1((0 0 0.003))
0()
1((0 0 0.003))
0()
1((0 0 0.003))
0()
0()
0()
0()
0()
0()
0()
0()
0()
1((0 0 0.003))
0()
1((0 0 0.003))
0()
0()
0()
0()
1((0 0 0.003))
0()
1((0 0 0.003))
0()
0()
0()
0()
1((0 0 0.003))
0()
1((0 0 0.003))
0()
0()
0()
0()
1((0 0 0.003))
0()
0()
1((0 0 0.003))
0()
0()
1((0 0 0.003))
0()
0()
0()
1((0 0 0.003))
0()
0()
0()
0()
0()
0()
0()
0()
0()
0()
0()
0()
0()
0()
0()
0()
0()
0()
0()
0()
0()
0()
0()
0()
0()
0()
0()
0()
0()
0()
0()
0()
0()
0()
0()
0()
0()
0()
0()
0()
0()
0()
0()
0()
0()
0()
0()
0()
0()
0()
0()
0()
0()
0()
0()
0()
0()
0()
0()
0()
0()
0()
1((0 0 0.003))
1((0 0 0.003))
0()
1((0 0 0.003))
0()
0()
0()
0()
0()
0()
0()
0()
0()
0()
0()
0()
0()
0()
0()
0()
0()
0()
0()
0()
0()
0()
0()
0()
0()
0()
0()
0()
0()
0()
0()
0()
0()
0()
0()
0()
0()
0()
0()
0()
0()
0()
0()
0()
0()
0()
0()
0()
0()
0()
0()
0()
0()
0()
0()
0()
0()
0()
0()
0()
0()
0()
0()
0()
0()
1((0 0 0.003))
0()
0()
1((0 0 0.003))
0()
1((0 0 0.003))
1((0 0 0.003))
1((0 0 0.003))
0()
0()
0()
0()
0()
0()
0()
0()
0()
0()
0()
0()
0()
0()
0()
0()
0()
0()
0()
0()
0()
0()
0()
0()
0()
0()
0()
0()
0()
0()
0()
0()
0()
0()
0()
0()
0()
0()
0()
0()
0()
0()
0()
0()
0()
0()
0()
0()
0()
0()
0()
0()
0()
0()
0()
0()
0()
0()
0()
0()
0()
0()
0()
0()
0()
0()
0()
1((0 0 0.003))
0()
0()
0()
0()
0()
0()
0()
0()
0()
0()
0()
0()
0()
0()
0()
0()
0()
0()
0()
0()
0()
0()
0()
0()
0()
0()
0()
0()
0()
0()
0()
0()
0()
0()
0()
0()
0()
0()
0()
0()
0()
0()
0()
0()
0()
0()
0()
0()
0()
0()
0()
0()
0()
0()
0()
0()
0()
0()
0()
0()
0()
0()
0()
0()
0()
0()
0()
0()
0()
0()
0()
0()
0()
0()
0()
0()
0()
1((0 -5.55112e-17 0.003))
0()
0()
0()
0()
1((0 0 0.003))
0()
1((0 0 0.003))
0()
0()
0()
0()
1((0 0 0.003))
0()
1((0 0 0.003))
0()
0()
0()
0()
1((0 0 0.003))
0()
1((0 0 0.003))
0()
0()
0()
0()
0()
0()
0()
0()
0()
0()
0()
0()
0()
0()
0()
0()
0()
0()
0()
0()
0()
0()
0()
0()
0()
0()
0()
0()
0()
0()
0()
0()
0()
0()
0()
0()
0()
0()
0()
0()
0()
0()
0()
0()
0()
0()
0()
0()
0()
0()
0()
0()
0()
0()
0()
0()
0()
0()
0()
0()
0()
0()
0()
0()
0()
0()
0()
0()
0()
0()
0()
0()
0()
0()
0()
0()
0()
0()
0()
0()
1((0 0 0.003))
1((0 0 0.003))
1((0 0 0.003))
0()
1((0 -1.38778e-17 0.003))
1((0 0 0.003))
0()
1((0 0 0.003))
0()
0()
1((0 0 0.003))
0()
1((0 0 0.003))
0()
1((0 0 0.003))
0()
0()
0()
0()
0()
0()
1((0 0 0.003))
0()
0()
0()
0()
0()
0()
1((0 0 0.003))
0()
0()
0()
0()
1((0 0 0.003))
0()
1((0 0 0.003))
0()
0()
0()
0()
0()
0()
0()
0()
0()
0()
0()
0()
0()
0()
0()
0()
0()
0()
0()
0()
0()
0()
0()
0()
0()
0()
0()
0()
0()
0()
0()
0()
0()
0()
0()
0()
0()
0()
0()
0()
0()
0()
0()
0()
0()
0()
0()
0()
0()
0()
0()
0()
0()
0()
0()
0()
0()
0()
0()
0()
0()
0()
1((0 0 0.003))
1((0 0 0.003))
1((0 0 0.003))
1((0 0 0.003))
0()
0()
0()
0()
0()
0()
0()
0()
0()
0()
0()
0()
0()
0()
0()
0()
0()
0()
0()
0()
0()
0()
0()
0()
0()
0()
0()
0()
0()
0()
0()
0()
0()
0()
0()
0()
0()
0()
0()
0()
0()
0()
0()
0()
0()
0()
0()
0()
0()
0()
0()
0()
0()
0()
0()
0()
0()
0()
0()
0()
0()
0()
0()
0()
0()
1((0 0 0.003))
0()
0()
0()
0()
0()
0()
0()
0()
0()
0()
0()
0()
0()
0()
0()
0()
0()
0()
0()
0()
0()
0()
0()
0()
0()
0()
0()
0()
0()
0()
0()
0()
0()
0()
0()
0()
0()
0()
0()
0()
0()
0()
0()
0()
0()
0()
0()
0()
0()
0()
0()
0()
0()
0()
0()
0()
0()
0()
0()
0()
0()
0()
0()
0()
0()
0()
0()
0()
0()
0()
0()
1((0 0 0.003))
0()
0()
1((0 0 0.003))
0()
1((0 0 0.003))
0()
0()
0()
0()
1((0 0 0.003))
0()
1((0 0 0.003))
0()
0()
0()
0()
1((0 0 0.003))
0()
1((0 0 0.003))
0()
0()
0()
0()
0()
0()
1((0 0 0.003))
0()
0()
0()
0()
1((1.38778e-17 0 0.003))
0()
0()
0()
1((0 0 0.003))
0()
0()
0()
0()
0()
0()
0()
0()
0()
1((0 0 0.003))
0()
1((0 0 0.003))
0()
1((0 0 0.003))
0()
1((0 0 0.003))
0()
0()
1((0 0 0.003))
0()
1((0 0 0.003))
0()
1((0 0 0.003))
0()
0()
1((0 0 0.003))
0()
1((0 0 0.003))
0()
0()
0()
0()
0()
0()
0()
0()
1((-1.38778e-17 0 0.003))
1((0 0 0.003))
0()
0()
0()
0()
0()
0()
0()
0()
0()
0()
0()
0()
0()
0()
0()
0()
0()
0()
0()
0()
0()
0()
0()
0()
0()
0()
0()
0()
0()
0()
0()
0()
0()
0()
0()
0()
0()
0()
0()
0()
0()
0()
0()
0()
0()
0()
0()
0()
0()
0()
0()
0()
0()
0()
0()
0()
0()
0()
0()
0()
0()
0()
0()
0()
0()
0()
0()
0()
0()
0()
0()
0()
0()
0()
0()
0()
0()
0()
0()
0()
0()
0()
0()
0()
0()
0()
0()
0()
0()
0()
0()
0()
0()
0()
0()
0()
0()
0()
0()
0()
0()
0()
0()
0()
0()
0()
0()
0()
0()
0()
0()
0()
0()
0()
0()
0()
0()
0()
0()
0()
0()
0()
0()
0()
0()
0()
0()
0()
0()
0()
0()
0()
0()
0()
0()
0()
0()
0()
1((0 0 0.003))
1((0 0 0.003))
1((-1.38778e-17 0 0.003))
1((0 0 0.003))
0()
1((0 0 0.003))
0()
0()
0()
0()
0()
0()
0()
0()
0()
0()
0()
0()
0()
0()
0()
0()
0()
0()
0()
0()
0()
0()
0()
0()
0()
0()
0()
0()
0()
0()
0()
0()
0()
0()
0()
0()
0()
0()
0()
0()
0()
0()
0()
0()
0()
0()
0()
0()
0()
0()
0()
0()
0()
0()
0()
0()
0()
0()
0()
0()
0()
0()
0()
0()
0()
0()
0()
0()
0()
0()
0()
0()
0()
0()
0()
0()
0()
0()
0()
0()
0()
0()
0()
0()
0()
0()
0()
0()
0()
0()
0()
0()
0()
0()
0()
0()
0()
0()
0()
0()
0()
0()
0()
0()
0()
0()
0()
0()
0()
0()
0()
0()
0()
0()
0()
0()
0()
0()
0()
0()
0()
0()
0()
0()
0()
0()
0()
0()
0()
0()
0()
0()
0()
0()
0()
0()
0()
1((0 0 0.003))
1((0 0 0.003))
0()
1((0 0 0.003))
0()
1((0 0 0.003))
0()
0()
0()
0()
0()
0()
0()
0()
0()
0()
0()
0()
0()
1((0 0 0.003))
0()
0()
0()
0()
0()
0()
1((0 0 0.003))
0()
0()
0()
0()
1((0 0 0.003))
0()
1((0 0 0.003))
0()
0()
0()
0()
0()
0()
1((0 0 0.003))
0()
1((0 0 0.003))
0()
0()
1((0 0 0.003))
0()
1((0 0 0.003))
0()
1((0 0 0.003))
0()
0()
0()
0()
1((0 0 0.003))
0()
1((0 0 0.003))
0()
0()
0()
0()
1((0 0 0.003))
0()
1((0 0 0.003))
0()
0()
0()
0()
1((0 0 0.003))
0()
1((0 0 0.003))
1((0 0 0.003))
1((0 0 0.003))
0()
1((0 0 0.003))
0()
0()
0()
0()
0()
0()
0()
0()
0()
0()
0()
0()
0()
0()
0()
0()
0()
0()
0()
0()
0()
0()
0()
0()
0()
0()
0()
0()
0()
0()
0()
0()
0()
0()
0()
0()
0()
0()
0()
0()
0()
0()
0()
0()
0()
0()
0()
0()
0()
0()
0()
0()
0()
0()
0()
0()
0()
0()
0()
0()
0()
0()
0()
0()
0()
0()
1((0 0 0.003))
0()
0()
1((0 0 0.003))
0()
0()
0()
0()
0()
0()
0()
0()
0()
0()
0()
0()
0()
0()
0()
0()
0()
0()
0()
0()
0()
0()
0()
0()
0()
0()
0()
0()
0()
0()
0()
0()
0()
0()
0()
0()
0()
0()
0()
0()
0()
0()
0()
0()
0()
0()
0()
0()
0()
0()
0()
0()
0()
0()
0()
0()
0()
0()
0()
0()
0()
0()
0()
0()
0()
0()
0()
1((0 0 0.003))
0()
0()
0()
0()
0()
0()
0()
1((0 0 0.003))
0()
1((0 0 0.003))
0()
0()
0()
0()
0()
0()
0()
0()
0()
0()
0()
0()
0()
0()
0()
0()
0()
0()
0()
0()
0()
0()
0()
0()
0()
0()
0()
0()
0()
0()
0()
0()
0()
0()
0()
0()
0()
0()
0()
0()
0()
0()
0()
0()
0()
0()
0()
0()
0()
0()
0()
0()
0()
0()
0()
0()
0()
0()
0()
0()
0()
0()
0()
0()
0()
0()
0()
0()
1((0 0 0.003))
0()
1((0 0 0.003))
0()
0()
0()
0()
0()
0()
0()
0()
0()
0()
0()
0()
0()
0()
0()
0()
0()
0()
0()
0()
0()
0()
0()
0()
0()
0()
0()
0()
0()
0()
0()
0()
0()
0()
0()
0()
0()
0()
0()
0()
0()
0()
0()
0()
0()
0()
0()
0()
0()
0()
0()
0()
0()
0()
0()
0()
0()
0()
0()
0()
0()
0()
0()
0()
0()
0()
0()
1((0 0 0.003))
1((2.77556e-17 0 0.003))
0()
1((0 0 0.003))
0()
1((0 0 0.003))
0()
1((0 0 0.003))
0()
0()
0()
0()
1((0 0 0.003))
0()
0()
0()
0()
0()
0()
1((0 0 0.003))
0()
0()
0()
0()
0()
0()
0()
0()
0()
0()
0()
0()
0()
0()
0()
1((0 0 0.003))
0()
0()
0()
0()
1((0 0 0.003))
0()
1((0 0 0.003))
0()
0()
0()
0()
1((0 0 0.003))
0()
1((0 0 0.003))
0()
1((0 0 0.003))
0()
0()
1((0 0 0.003))
0()
1((0 0 0.003))
0()
0()
0()
0()
1((0 0 0.003))
0()
1((0 0 0.003))
0()
0()
0()
0()
1((0 0 0.003))
0()
1((0 0 0.003))
1((0 0 0.003))
0()
1((0 0 0.003))
0()
0()
0()
0()
0()
0()
0()
0()
0()
0()
0()
0()
0()
0()
0()
0()
0()
0()
0()
0()
0()
0()
0()
0()
0()
0()
0()
0()
0()
0()
0()
0()
0()
0()
0()
0()
0()
0()
0()
0()
0()
0()
0()
0()
0()
0()
0()
0()
0()
0()
0()
0()
0()
0()
0()
0()
0()
0()
0()
0()
0()
0()
0()
0()
0()
0()
0()
0()
0()
0()
0()
0()
0()
0()
0()
0()
0()
0()
0()
0()
0()
0()
0()
0()
0()
0()
0()
0()
0()
0()
0()
0()
0()
0()
0()
0()
0()
0()
0()
0()
0()
0()
0()
0()
0()
0()
0()
0()
0()
0()
0()
0()
0()
0()
0()
0()
0()
0()
0()
0()
0()
0()
0()
0()
0()
0()
0()
0()
0()
0()
0()
0()
0()
0()
0()
0()
0()
0()
0()
0()
0()
1((0 0 0.003))
1((0 0 0.003))
1((0 0 0.003))
0()
0()
0()
0()
0()
0()
0()
0()
0()
0()
0()
0()
0()
0()
0()
0()
0()
0()
0()
0()
0()
0()
0()
0()
0()
0()
0()
0()
0()
0()
0()
0()
0()
0()
0()
0()
0()
0()
0()
0()
0()
0()
0()
0()
0()
0()
0()
0()
0()
0()
0()
0()
0()
0()
0()
0()
0()
0()
0()
0()
0()
0()
0()
0()
0()
1((0 0 0.003))
1((0 0 0.003))
0()
0()
0()
0()
0()
0()
0()
0()
0()
0()
0()
0()
0()
0()
0()
0()
0()
0()
0()
0()
0()
0()
0()
0()
0()
0()
0()
0()
0()
0()
0()
0()
0()
0()
0()
0()
0()
0()
0()
0()
0()
0()
0()
0()
0()
0()
0()
0()
0()
0()
0()
0()
0()
0()
0()
0()
0()
0()
0()
0()
0()
0()
0()
0()
0()
0()
0()
0()
0()
1((0 0 0.003))
1((0 0 0.003))
1((0 0 0.003))
0()
1((0 0 0.003))
0()
1((0 0 0.003))
0()
0()
0()
0()
1((0 0 0.003))
0()
1((0 0 0.003))
0()
0()
0()
0()
0()
0()
1((0 -2.77556e-17 0.003))
0()
0()
0()
0()
0()
0()
0()
0()
0()
0()
0()
1((0 0 0.003))
0()
0()
0()
0()
0()
0()
1((0 0 0.003))
0()
0()
0()
0()
0()
0()
1((0 0 0.003))
0()
0()
0()
0()
0()
0()
0()
0()
1((0 0 0.003))
0()
1((0 0 0.003))
0()
0()
0()
0()
1((0 0 0.003))
0()
1((0 0 0.003))
0()
0()
0()
0()
0()
0()
0()
0()
1((0 0 0.003))
1((0 0 0.003))
0()
0()
0()
0()
0()
0()
0()
0()
0()
0()
0()
0()
0()
0()
0()
0()
0()
0()
0()
0()
0()
0()
0()
0()
0()
0()
0()
0()
0()
0()
0()
0()
0()
0()
0()
0()
0()
0()
0()
0()
0()
0()
0()
0()
0()
0()
0()
0()
0()
0()
0()
0()
0()
0()
0()
0()
0()
0()
0()
0()
0()
0()
0()
0()
0()
0()
0()
0()
0()
0()
0()
0()
0()
0()
0()
0()
0()
0()
0()
0()
0()
0()
0()
0()
0()
0()
0()
0()
0()
0()
0()
0()
0()
0()
0()
0()
0()
0()
0()
0()
0()
0()
0()
0()
0()
0()
0()
0()
0()
0()
0()
0()
0()
0()
0()
0()
0()
0()
0()
0()
0()
0()
0()
0()
0()
0()
0()
0()
0()
0()
0()
0()
0()
0()
0()
0()
0()
0()
0()
0()
0()
0()
0()
0()
0()
0()
0()
0()
0()
0()
0()
0()
0()
0()
0()
0()
0()
0()
0()
0()
0()
0()
0()
0()
0()
0()
0()
0()
0()
0()
0()
0()
0()
0()
0()
0()
0()
0()
0()
0()
0()
0()
0()
0()
0()
0()
0()
0()
0()
0()
0()
0()
0()
0()
0()
0()
0()
1((0 0 0.003))
0()
0()
1((2.77556e-17 0 0.003))
0()
1((0 0 0.003))
1((0 0 0.003))
0()
0()
0()
0()
0()
0()
0()
0()
0()
0()
0()
0()
0()
0()
0()
0()
0()
0()
0()
0()
0()
0()
0()
0()
0()
0()
0()
0()
0()
0()
0()
0()
0()
0()
0()
0()
0()
0()
0()
0()
0()
0()
0()
0()
0()
0()
0()
0()
0()
0()
0()
0()
0()
0()
0()
0()
0()
0()
0()
0()
0()
0()
0()
0()
0()
0()
0()
0()
0()
0()
1((0 0 0.003))
1((0 0 0.003))
0()
1((0 0 0.003))
0()
1((0 0 0.003))
0()
0()
0()
0()
1((0 0 0.003))
0()
1((0 0 0.003))
0()
0()
0()
0()
0()
0()
1((0 0 0.003))
0()
0()
0()
0()
0()
0()
0()
0()
0()
0()
0()
0()
0()
0()
0()
0()
0()
0()
0()
0()
0()
0()
1((0 0 0.003))
0()
0()
1((0 0 0.003))
0()
0()
0()
0()
0()
0()
0()
0()
0()
0()
1((0 0 0.003))
0()
0()
1((0 0 0.003))
0()
1((0 0 0.003))
0()
1((0 0 0.003))
0()
0()
0()
0()
0()
0()
0()
1((0 0 0.003))
1((0 0 0.003))
0()
0()
0()
0()
0()
0()
0()
0()
0()
0()
0()
0()
0()
0()
0()
0()
0()
0()
0()
0()
0()
0()
0()
0()
0()
0()
0()
0()
0()
0()
0()
0()
0()
0()
0()
0()
0()
0()
0()
0()
0()
0()
0()
0()
0()
0()
0()
0()
0()
0()
0()
0()
0()
0()
0()
0()
0()
0()
0()
0()
0()
0()
0()
0()
0()
0()
0()
0()
1((0 0 0.003))
0()
1((0 0 0.003))
0()
0()
0()
0()
0()
0()
0()
0()
0()
0()
0()
0()
0()
0()
0()
0()
0()
0()
0()
0()
0()
0()
0()
0()
0()
0()
0()
0()
0()
0()
0()
0()
0()
0()
0()
0()
0()
0()
0()
0()
0()
0()
0()
0()
0()
0()
0()
0()
0()
0()
0()
0()
0()
0()
0()
0()
0()
0()
0()
0()
0()
0()
0()
0()
0()
0()
0()
0()
0()
0()
1((0 0 0.003))
1((0 0 0.003))
1((0 0 0.003))
1((0 0 0.003))
0()
0()
0()
0()
0()
0()
0()
0()
0()
0()
0()
0()
0()
0()
0()
0()
0()
0()
0()
0()
0()
0()
0()
0()
0()
0()
0()
0()
0()
0()
0()
0()
0()
0()
0()
0()
0()
0()
0()
0()
0()
0()
0()
0()
0()
0()
0()
0()
0()
0()
0()
0()
0()
0()
0()
0()
0()
0()
0()
0()
1((0 0 0.003))
0()
0()
0()
0()
1((0 -6.93889e-18 0.003))
1((0 0 0.003))
0()
0()
0()
0()
0()
0()
0()
0()
0()
0()
0()
0()
0()
0()
0()
0()
0()
0()
0()
0()
0()
0()
0()
0()
0()
0()
0()
0()
0()
0()
0()
0()
0()
0()
0()
0()
0()
0()
0()
0()
0()
0()
0()
0()
0()
0()
0()
0()
0()
0()
0()
0()
0()
0()
0()
0()
0()
0()
0()
0()
0()
0()
0()
0()
0()
1((0 0 0.003))
0()
0()
0()
1((0 6.93889e-18 0.003))
1((0 0 0.003))
0()
1((0 0 0.003))
1((0 0 0.003))
0()
1((0 0 0.003))
0()
0()
0()
0()
1((0 0 0.003))
0()
0()
0()
0()
0()
0()
1((0 0 0.003))
0()
0()
0()
0()
0()
0()
0()
0()
0()
0()
0()
0()
0()
0()
0()
0()
0()
0()
0()
0()
0()
0()
0()
0()
0()
0()
0()
0()
0()
0()
0()
0()
0()
0()
0()
0()
0()
0()
1((0 0 0.003))
0()
0()
1((0 0 0.003))
0()
1((0 0 0.003))
0()
1((0 0 0.003))
0()
1((0 0 0.003))
0()
0()
0()
0()
0()
0()
1((0 0 0.003))
0()
0()
1((0 0 0.003))
0()
0()
0()
0()
0()
0()
0()
1((0 0 0.003))
0()
0()
0()
1((0 0 0.003))
0()
0()
0()
0()
0()
0()
0()
0()
0()
0()
0()
0()
0()
0()
0()
0()
0()
0()
0()
0()
0()
0()
0()
0()
0()
0()
0()
0()
0()
0()
0()
0()
0()
0()
0()
0()
0()
0()
0()
0()
0()
0()
0()
0()
0()
0()
0()
0()
1((0 0 0.003))
0()
0()
0()
0()
0()
0()
1((0 0 0.003))
1((0 0 0.003))
0()
0()
1((0 0 0.003))
0()
0()
1((0 0 0.003))
0()
0()
0()
0()
0()
0()
1((0 0 0.003))
1((0 0 0.003))
0()
0()
0()
0()
0()
0()
0()
0()
0()
0()
0()
0()
0()
0()
0()
0()
0()
0()
0()
0()
0()
0()
0()
0()
0()
0()
0()
0()
0()
0()
0()
0()
0()
0()
0()
0()
0()
0()
0()
0()
1((0 0 0.003))
0()
0()
0()
0()
0()
0()
0()
0()
0()
0()
0()
0()
2((0 0 0.003) (0.00149992 -0.00259794 -3.46945e-17))
0()
0()
1((0 0 0.003))
0()
0()
1((0 0 0.003))
0()
1((0 0 0.003))
1((0 0 0.003))
0()
0()
1((0 0 0.003))
0()
0()
1((0 0 0.003))
1((0 0 0.003))
0()
1((0 0 0.003))
1((0 0 0.003))
0()
0()
1((0 0 0.003))
1((0 0 0.003))
0()
0()
1((0 0 0.003))
0()
0()
1((0 0 0.003))
1((0 0 0.003))
0()
1((0 0 0.003))
0()
0()
0()
1((0 0 0.003))
0()
0()
1((0 0 0.003))
0()
0()
0()
1((0 0 0.003))
0()
1((0 0 0.003))
0()
0()
0()
0()
0()
0()
1((0 0 0.003))
0()
0()
0()
1((0 0 0.003))
0()
0()
1((0 0 0.003))
0()
0()
0()
0()
0()
0()
1((0 0 0.003))
0()
0()
0()
0()
0()
0()
0()
1((0 0 0.003))
1((0 0 0.003))
0()
0()
0()
0()
1((0 0 0.003))
0()
0()
0()
0()
0()
1((0 0 0.003))
0()
0()
1((0 0 0.003))
0()
0()
1((0 0 0.003))
0()
0()
1((0 0 0.003))
0()
0()
1((0 0 0.003))
0()
0()
1((0 0 0.003))
1((0 0 0.003))
0()
0()
1((0 0 0.003))
0()
0()
0()
0()
0()
1((0 0 0.003))
1((0 0 0.003))
0()
0()
0()
0()
0()
0()
1((0 0 0.003))
0()
0()
1((0 0 0.003))
0()
0()
1((0 0 0.003))
0()
0()
0()
0()
1((0 0 0.003))
1((0 0 0.003))
1((0 0 0.003))
1((0 0 0.003))
1((0 0 0.003))
0()
1((0 0 0.003))
0()
0()
0()
0()
0()
2((0 0 0.003) (0.00149754 -0.00259381 4.33681e-19))
1((0 0 0.003))
0()
0()
1((0 0 0.003))
1((0 0 0.003))
0()
0()
1((0 0 0.003))
1((0 0 0.003))
0()
1((0 0 0.003))
1((0 0 0.003))
0()
0()
1((0 0 0.003))
0()
1((0 0 0.003))
0()
0()
1((0 0 0.003))
0()
0()
1((0 0 0.003))
1((0 0 0.003))
0()
0()
1((0 0 0.003))
0()
0()
0()
1((0 0 0.003))
0()
0()
1((0 0 0.003))
1((0 0 0.003))
0()
0()
1((0 0 0.003))
0()
0()
1((0 0 0.003))
0()
1((0 0 0.003))
0()
1((0 0 0.003))
0()
0()
1((0 0 0.003))
1((0 5.55112e-17 0.003))
1((0 0 0.003))
0()
1((0 0 0.003))
0()
0()
1((0 0 0.003))
1((0 0 0.003))
1((0 0 0.003))
0()
1((0 0 0.003))
0()
0()
1((0 0 0.003))
0()
1((0 0 0.003))
0()
1((0 0 0.003))
0()
1((0 0 0.003))
0()
0()
0()
0()
1((-2.77556e-17 0 0.003))
0()
0()
0()
0()
)


// ************************************************************************* //
