/*--------------------------------*- C++ -*----------------------------------*\
  =========                 |
  \\      /  F ield         | OpenFOAM: The Open Source CFD Toolbox
   \\    /   O peration     | Website:  https://openfoam.org
    \\  /    A nd           | Version:  8
     \\/     M anipulation  |
\*---------------------------------------------------------------------------*/
FoamFile
{
    version     2.0;
    format      ascii;
    class       vectorField;
    location    "0/lagrangian/kinematicCloud";
    object      f;
}
// * * * * * * * * * * * * * * * * * * * * * * * * * * * * * * * * * * * * * //


3300
(
(0 0 0)
(0 0 0)
(0 0 0)
(1.47665e-20 2.03826e-14 1.22461e-20)
(-1.47665e-20 -2.03826e-14 -1.22461e-20)
(2.94512e-21 3.94968e-13 5.242e-21)
(-2.94512e-21 -3.94968e-13 -5.242e-21)
(-3.65207e-20 -1.71542e-12 -1.85713e-21)
(3.65207e-20 1.71542e-12 1.85713e-21)
(0 0 0)
(-4.78907e-16 -6.08224e-12 -8.73095e-20)
(1.35554e-14 1.16752e-12 -1.10107e-19)
(-1.30765e-14 4.91472e-12 1.97416e-19)
(0 0 0)
(0 0 0)
(-3.96395e-21 -4.18105e-12 4.16212e-21)
(3.96395e-21 4.18105e-12 -4.16212e-21)
(0 0 0)
(-3.15773e-20 -1.29161e-12 1.36542e-20)
(2.81292e-20 -1.05471e-11 -4.0457e-20)
(-4.20906e-20 -1.08638e-11 6.08817e-20)
(4.24691e-20 2.07613e-11 -2.71616e-20)
(3.06958e-21 1.94121e-12 -6.91732e-21)
(5.07753e-21 -9.88357e-13 -1.41492e-20)
(-5.61066e-21 -2.34438e-12 3.57642e-20)
(-1.22095e-21 -2.58996e-13 8.52057e-21)
(1.75407e-21 3.59173e-12 -3.01356e-20)
(0 0 0)
(0 0 0)
(0 0 0)
(0 0 0)
(0 0 0)
(0 0 0)
(0 0 0)
(3.54201e-15 -2.09018e-15 -4.11275e-14)
(9.60623e-16 3.55658e-16 -1.02435e-14)
(0 0 0)
(0 0 0)
(7.02763e-16 1.9284e-15 -2.05246e-14)
(-0.11854 0.0671121 3.75367e-13)
(0 0 0)
(0 0 0)
(-1.22462e-18 2.91094e-16 -2.91097e-15)
(0 0 0)
(0 0 0)
(-2.40522e-18 2.38309e-16 -2.38322e-15)
(0 0 0)
(0 0 0)
(-1.86498e-19 3.78041e-16 -3.78041e-15)
(9.01499e-21 3.54214e-16 -3.54214e-15)
(0 0 0)
(-6.50842e-21 3.81665e-16 -3.81665e-15)
(0 0 0)
(0 0 0)
(3.16805e-22 4.21862e-16 -4.21862e-15)
(0 0 0)
(0 0 0)
(2.1275e-23 4.6272e-16 -4.6272e-15)
(-2.45514e-24 3.36573e-16 -3.36573e-15)
(0 0 0)
(0 0 0)
(1.48128e-23 3.01782e-16 -3.01782e-15)
(0 0 0)
(0 0 0)
(0 0 0)
(1.02174e-23 3.83087e-16 -3.83087e-15)
(0 0 0)
(0 0 0)
(-6.92625e-24 2.98154e-16 -2.98154e-15)
(0 0 0)
(0 0 0)
(0 0 0)
(1.30622e-17 3.55353e-16 -3.55593e-15)
(0 0 0)
(0 0 0)
(-1.31636e-25 3.5976e-16 -3.5976e-15)
(0 0 0)
(0 0 0)
(-1.43676e-22 1.46561e-16 -1.46561e-15)
(-3.42519e-25 -2.61081e-16 -2.61081e-15)
(0 0 0)
(-2.89827e-27 -5.19967e-18 -5.19967e-17)
(-9.52217e-27 -1.38832e-16 -1.38832e-15)
(0 0 0)
(4.55121e-27 -5.82199e-17 -5.82199e-16)
(0 0 0)
(9.4607e-28 -1.51461e-16 -1.51461e-15)
(0 0 0)
(0 0 0)
(-2.4631e-27 -1.52872e-16 -1.52872e-15)
(0 0 0)
(-8.82528e-28 -8.03853e-17 -8.03853e-16)
(0 0 0)
(-1.90008e-28 -4.50503e-17 -4.50503e-16)
(0 0 0)
(0 0 0)
(-5.69052e-29 -3.81031e-17 -3.81031e-16)
(0 0 0)
(-3.80041e-30 -1.79322e-17 -1.79322e-16)
(0 0 0)
(4.44751e-31 -2.49109e-17 -2.49109e-16)
(0 0 0)
(-2.47989e-32 -7.65358e-19 -7.65358e-18)
(0 0 0)
(0 0 0)
(-0.00488228 -0.00554395 -2.28872e-14)
(-0.0468265 -0.085822 -3.01911e-13)
(4.14753e-16 1.06699e-16 -4.28258e-15)
(0 0 0)
(3.77865e-16 1.02346e-15 -1.09099e-14)
(0.11854 -0.0671121 -3.77024e-13)
(0 0 0)
(-0.000563842 0.00048189 6.12832e-16)
(0.000563842 -0.00048189 -1.34491e-14)
(0.000222504 -0.0136741 -4.42858e-15)
(-0.000239719 0.00904329 3.14721e-15)
(0.000202858 -0.00984693 3.06874e-15)
(-0.000185643 0.0144778 -3.31626e-15)
(0 0 0)
(0 0 0)
(0 0 0)
(9.48262e-21 3.43527e-18 -3.43528e-17)
(1.24204e-20 1.1828e-17 -1.1828e-16)
(0 0 0)
(0.000105838 -0.00250691 -2.81786e-16)
(-0.000105838 0.00250691 2.23832e-16)
(-0.000168155 -0.00292577 -6.47881e-16)
(0.00026573 0.00326441 7.46265e-16)
(-9.75746e-05 -0.000338639 -1.07554e-16)
(6.58414e-05 -0.000697565 8.36539e-17)
(-6.58414e-05 0.000697565 -1.43666e-16)
(0 0 0)
(3.00555e-06 -0.00501791 8.80678e-17)
(-3.00555e-06 0.00501791 -8.80678e-17)
(0 0 0)
(2.02561e-07 -0.00291376 -1.25806e-16)
(-2.02561e-07 0.00291376 8.01011e-17)
(4.45091e-22 1.19448e-18 -1.19448e-17)
(1.86252e-05 -0.0285715 -1.49576e-16)
(-1.86252e-05 0.0285715 1.49576e-16)
(0 0 0)
(0 0 0)
(0.000907091 -0.0120954 -1.70002e-16)
(-0.00211995 -0.022155 -8.42744e-16)
(0.00121286 0.0342504 1.00095e-15)
(0 0 0)
(-2.71267e-05 -0.00308211 -4.4608e-17)
(3.45246e-05 -0.0556224 -1.65569e-16)
(1.08402e-05 0.044192 1.98811e-16)
(-1.82382e-05 0.0145126 1.13659e-17)
(-0.00020943 -0.0270472 -2.99767e-17)
(0.000742059 -0.0932295 5.28911e-16)
(-0.000666409 0.122431 -7.42782e-16)
(0.00013378 -0.00215437 2.43848e-16)
(-0.00467077 -0.0994803 1.17589e-15)
(0.00472668 0.0995079 -1.17907e-15)
(-0.00127626 0.000698225 4.43454e-17)
(0 0 0)
(0 0 0)
(0 0 0)
(-0.000867618 0.000478778 1.50698e-16)
(0 0 0)
(0 0 0)
(3.807e-32 2.85048e-19 -2.85048e-18)
(-2.12377e-33 7.56276e-20 -7.56276e-19)
(0 0 0)
(0 0 0)
(0 0 0)
(0 0 0)
(0 0 0)
(0 0 0)
(0 0 0)
(0 0 0)
(0 0 0)
(0 0 0)
(0 0 0)
(-2.70226e-15 1.09648e-16 -2.70448e-14)
(0 0 0)
(-0.0788061 0.0376862 1.15089e-13)
(-0.0364812 0.0519982 -8.12919e-14)
(-0.000430505 -0.00663322 -4.72787e-14)
(-0.00577375 -0.0182003 1.57393e-14)
(0.00465543 -0.0449508 2.00452e-14)
(-0.00132238 0.0760436 -2.64097e-14)
(-0.000888425 0.00664784 5.82565e-14)
(3.92559e-18 5.02668e-17 -5.04198e-16)
(4.87379e-18 1.07334e-16 -1.07445e-15)
(0 0 0)
(0 0 0)
(0 0 0)
(0 0 0)
(0 0 0)
(-1.44026e-20 1.12587e-17 -1.12587e-16)
(0 0 0)
(0 0 0)
(-3.37974e-21 9.91388e-18 -9.91388e-17)
(-2.9817e-05 -0.000245766 1.80227e-16)
(0.000100359 -0.00727286 -9.56959e-16)
(-0.000199264 -0.0122291 9.33531e-16)
(0.000233955 -0.00269157 1.25958e-18)
(-0.000255326 -0.00306897 2.12539e-16)
(0.000257886 -0.0236369 -3.14427e-15)
(-0.000130551 -0.0164865 2.44493e-15)
(6.46576e-08 0.013876 1.10559e-15)
(3.93898e-05 0.0120756 -7.34769e-16)
(-3.4573e-05 -0.0070395 -6.94488e-16)
(2.07821e-05 -0.0118581 8.84365e-16)
(-4.68241e-06 -0.00143877 -1.86499e-16)
(-1.27454e-05 0.00209967 -1.01668e-15)
(1.62815e-05 -0.00751724 7.10841e-16)
(-2.54419e-05 -0.0257859 2.25384e-16)
(2.53819e-05 -0.0167227 1.09851e-16)
(1.17983e-05 0.0235838 2.10149e-16)
(-2.43923e-05 0.0320006 -1.3619e-16)
(1.77406e-05 0.0183683 -6.24129e-16)
(-6.60503e-06 0.00666393 4.12438e-16)
(-1.38696e-06 -0.0111413 -3.97931e-16)
(9.73872e-06 -0.0236179 -6.23804e-16)
(-2.11619e-05 0.00291969 9.99249e-16)
(2.43239e-05 0.0220025 3.33649e-16)
(-1.35962e-05 0.021026 -4.85693e-16)
(-2.531e-05 0.000588265 -6.2934e-17)
(8.15961e-06 -0.0280825 -4.47317e-17)
(0.000131105 -0.00476911 1.66044e-16)
(-0.000231446 0.00231848 -1.85619e-16)
(0.00015861 0.0183966 1.99676e-16)
(0.000266824 0.0193776 -8.0708e-17)
(0.000871568 -0.0178818 2.545e-16)
(7.27107e-05 -0.0486176 2.92575e-16)
(-6.72228e-05 0.00945662 -7.23565e-16)
(0.000185946 -0.0069681 -8.25052e-16)
(0.000767142 -0.0324239 1.85168e-15)
(-8.59208e-05 -0.0269764 1.18199e-15)
(5.25017e-05 -0.0117957 -3.8983e-15)
(-3.97169e-06 0.032573 -7.8501e-16)
(-6.94052e-06 0.0712137 2.00203e-15)
(-1.17678e-05 0.0090496 1.4108e-16)
(8.20092e-06 0.00218601 7.80727e-16)
(-1.00595e-05 -0.0022796 -7.74744e-16)
(1.19068e-06 -0.215523 4.9899e-16)
(8.49757e-06 0.24509 -2.78186e-16)
(-1.06006e-05 -0.192834 -1.87104e-14)
(1.57751e-05 0.0315554 1.20793e-14)
(-5.17449e-06 0.161278 6.63106e-15)
(0 0 0)
(0 0 0)
(0 0 0)
(0 0 0)
(-0.00845079 -0.0539055 -2.59093e-13)
(0.175818 0.0454579 2.83576e-13)
(0 0 0)
(-0.0102072 -0.00403673 -2.54872e-15)
(6.1523e-16 2.54226e-15 -2.61564e-14)
(0 0 0)
(0 0 0)
(0.00338838 -0.00277791 -6.05726e-14)
(2.10514e-19 4.16935e-17 -4.16941e-16)
(0 0 0)
(0 0 0)
(1.95821e-18 2.91971e-16 -2.91977e-15)
(0 0 0)
(0 0 0)
(8.96182e-19 7.30512e-17 -7.30567e-16)
(-3.01947e-19 6.31347e-17 -6.31354e-16)
(0 0 0)
(9.80521e-21 1.33846e-18 -1.3385e-17)
(9.23583e-19 1.31512e-16 -1.31515e-15)
(-1.04488e-05 -0.00152965 2.38899e-15)
(3.91199e-05 0.00136762 -2.03479e-15)
(-2.86711e-05 0.000162037 -1.36494e-15)
(0.000182727 -0.0144796 -2.2244e-15)
(-0.000199933 0.0142605 1.59144e-15)
(1.72066e-05 0.000219056 -4.9035e-16)
(0 0 0)
(-3.80081e-20 6.88326e-18 -6.88336e-17)
(0 0 0)
(0 0 0)
(0 0 0)
(-5.82883e-20 2.67021e-17 -2.67022e-16)
(9.26264e-21 1.29684e-17 -1.29684e-16)
(0 0 0)
(0 0 0)
(0 0 0)
(0 0 0)
(0 0 0)
(0 0 0)
(4.08791e-21 4.53036e-18 -4.53036e-17)
(-1.34048e-20 2.64372e-17 -2.64372e-16)
(0 0 0)
(0 0 0)
(7.25083e-21 1.39389e-17 -1.39389e-16)
(0 0 0)
(0 0 0)
(-4.21993e-21 7.1641e-18 -7.1641e-17)
(0 0 0)
(0 0 0)
(0 0 0)
(0 0 0)
(0 0 0)
(0 0 0)
(-5.40655e-23 2.7229e-18 -2.7229e-17)
(0 0 0)
(0 0 0)
(4.72662e-21 8.3246e-18 -8.3246e-17)
(0 0 0)
(0 0 0)
(0 0 0)
(0 0 0)
(0 0 0)
(0 0 0)
(0 0 0)
(-3.54447e-23 3.8708e-18 -3.8708e-17)
(0 0 0)
(0 0 0)
(7.87805e-25 3.49557e-18 -3.49557e-17)
(0 0 0)
(0 0 0)
(0 0 0)
(0 0 0)
(0 0 0)
(-0.00141034 -0.000907112 1.86094e-15)
(0.00141034 0.000907112 -3.58529e-15)
(-0.0128263 -0.0116288 5.98305e-16)
(0.0120559 0.0233663 1.89918e-15)
(-2.71478e-05 -5.15165e-05 5.7853e-22)
(0.000467848 -0.000799288 1.2735e-16)
(-0.0004407 0.000850805 -3.3869e-16)
(-4.61705e-07 -1.58585e-05 5.8396e-17)
(-0.000131001 -0.00130097 1.6354e-17)
(0.000261995 -0.000610078 3.63413e-16)
(-0.000222606 -0.000514156 -9.50274e-16)
(0.000111471 -0.00113049 7.5249e-16)
(3.30131e-05 -0.00191326 -3.04916e-16)
(-0.00015403 -0.0030137 1.16334e-16)
(0.000119221 0.000755459 -2.03253e-16)
(7.91497e-06 0.00487006 1.89662e-16)
(-4.28902e-05 0.00120024 -6.09705e-17)
(2.38648e-05 -0.000290467 5.24489e-17)
(-9.81552e-06 -0.00017842 -7.16194e-17)
(7.62561e-06 -0.00133956 9.18912e-17)
(-1.11994e-05 -0.00267951 -8.86419e-17)
(8.3624e-06 -0.00922072 7.45985e-17)
(4.20394e-06 -0.0234517 1.55543e-16)
(-1.24061e-05 8.8701e-05 -3.1876e-16)
(7.20665e-06 0.0277241 1.73619e-17)
(-2.2206e-06 0.00477495 1.62788e-16)
(2.47317e-06 0.00193899 -3.61879e-17)
(-2.2698e-06 -0.00101651 4.78364e-17)
(1.91597e-06 0.002741 -2.85826e-17)
(7.35589e-08 -0.00251892 -7.34594e-20)
(-1.03243e-07 0.00199295 -2.49376e-17)
(-5.52409e-07 -0.00438535 -5.33499e-17)
(3.81208e-08 -0.00222369 8.39357e-17)
(4.64777e-07 -0.00112387 1.02899e-17)
(-6.06563e-07 -0.00747375 -2.09702e-16)
(1.86777e-07 0.0068786 1.23472e-16)
(-5.68635e-07 -0.00594753 6.25202e-17)
(3.43495e-06 0.00139721 5.39546e-16)
(-2.73571e-06 0.0159862 -5.67613e-16)
(-5.56529e-07 -0.00239143 8.27519e-17)
(1.28694e-07 -0.00500228 5.64862e-17)
(4.27834e-07 0.00739371 -1.39238e-16)
(0 0 0)
(0 0 0)
(0 0 0)
(0 0 0)
(0 0 0)
(0 0 0)
(0 0 0)
(0 0 0)
(0 0 0)
(0 0 0)
(0 0 0)
(0 0 0)
(0 0 0)
(0 0 0)
(0 0 0)
(0 0 0)
(0 0 0)
(0 0 0)
(0 0 0)
(0 0 0)
(0 0 0)
(0 0 0)
(0 0 0)
(0 0 0)
(0 0 0)
(0 0 0)
(0 0 0)
(-1.2477e-17 4.87469e-16 -4.87628e-15)
(0 0 0)
(-0.177996 -0.0447755 -1.64106e-13)
(0.0167032 -0.0319516 -3.33406e-14)
(-0.065091 0.0330391 2.68773e-14)
(-0.00912054 0.00229358 3.98899e-16)
(0.00135855 0.00260698 -3.89749e-18)
(-6.39078e-05 7.85338e-05 3.01902e-16)
(-0.00173867 -0.00622343 -3.16728e-15)
(0.00126085 -0.00639253 6.1916e-15)
(-0.00180913 0.00324814 -5.78949e-15)
(0.00106803 0.00198834 3.46382e-15)
(-0.000683574 -0.00605833 -1.73605e-15)
(0.000280556 -0.0179123 1.07063e-15)
(-0.000792851 0.00746189 -4.66043e-16)
(-2.1713e-05 -0.000725626 -3.16105e-16)
(0.000164845 0.00813465 3.1339e-16)
(0.00081369 0.012559 -1.78177e-17)
(-0.00100779 0.00253465 -1.34993e-17)
(-0.000226332 0.000200856 1.15492e-16)
(5.85137e-07 -6.41431e-05 -2.95085e-18)
(-3.94028e-06 -0.000234853 5.59806e-18)
(3.43836e-06 -0.000555542 -4.89553e-18)
(5.02521e-06 -0.000963941 -1.36464e-17)
(-8.95805e-06 0.000145279 2.41056e-17)
(3.05457e-06 0.00110761 -1.28343e-17)
(1.40624e-06 -3.04315e-05 -1.70297e-18)
(-4.88785e-07 -0.00073186 -1.2461e-17)
(-2.98535e-08 0.000567273 8.30519e-17)
(-3.19244e-07 -0.00285161 -5.43951e-17)
(4.39519e-07 -0.000109187 9.93559e-17)
(1.0632e-06 -0.0145517 -1.64924e-16)
(-1.27602e-06 0.0182731 5.55081e-17)
(0 0 0)
(1.49637e-23 7.70703e-20 7.70703e-19)
(6.04979e-09 -0.000588939 -1.21371e-17)
(-6.04979e-09 0.000588939 1.30225e-17)
(0 0 0)
(5.8565e-23 2.63042e-19 -2.63042e-18)
(0 0 0)
(0 0 0)
(-1.58487e-07 -0.000372822 -1.22538e-17)
(9.17156e-08 -0.000335115 -1.24056e-17)
(6.67715e-08 0.000707938 2.46593e-17)
(0 0 0)
(0 0 0)
(0 0 0)
(0 0 0)
(1.40932e-23 6.53786e-20 6.53786e-19)
(7.22699e-08 -0.000825622 -1.89085e-17)
(-7.22699e-08 0.000825622 1.917e-17)
(0 0 0)
(0 0 0)
(0 0 0)
(0 0 0)
(3.80172e-22 9.04912e-19 -9.04912e-18)
(0 0 0)
(1.0972e-23 6.62961e-20 -6.62961e-19)
(0 0 0)
(0 0 0)
(0 0 0)
(0 0 0)
(-6.46238e-24 2.04066e-18 -2.04066e-17)
(-5.19921e-06 -0.00208627 -4.25268e-16)
(5.19921e-06 0.00208627 3.95911e-16)
(0 0 0)
(0 0 0)
(0 0 0)
(0 0 0)
(4.05002e-22 6.13508e-18 -6.13508e-17)
(0 0 0)
(0 0 0)
(-1.49837e-16 1.1552e-15 -1.16488e-14)
(0.159161 0.0525862 1.64474e-13)
(0 0 0)
(0.00278594 -0.017435 4.81273e-15)
(-0.0156944 0.00230788 -4.15176e-16)
(-0.0208472 0.00184916 6.39645e-16)
(-0.00272631 -0.00110385 -6.4465e-17)
(-0.00812415 -0.00106048 1.70835e-16)
(0.000120902 -0.00117714 -4.44069e-16)
(-0.000745222 -6.76997e-05 6.52967e-16)
(0.000105661 -0.00152497 -5.27244e-16)
(0.000100419 0.00105972 3.576e-16)
(-0.000393196 -0.00318429 -6.61413e-17)
(0.000786145 0.00203036 -6.89414e-17)
(0.00024512 0.00011234 1.06963e-16)
(0.000431126 0.00061213 -4.45518e-16)
(-0.000714012 0.000340144 8.45698e-16)
(-0.000172357 0.00099416 -1.11015e-15)
(0.000154154 0.00121718 8.3761e-16)
(3.24535e-05 -0.000256206 -3.45012e-16)
(-4.77537e-05 0.00095305 2.03302e-17)
(2.89356e-05 -0.00123136 6.54484e-18)
(-4.42574e-06 0.00132921 5.55524e-18)
(-3.82982e-06 -0.000681657 7.18773e-18)
(1.46202e-06 -0.000510978 -1.36576e-18)
(-4.41812e-09 0.00181013 -3.73611e-18)
(0 0 0)
(0 0 0)
(0 0 0)
(0 0 0)
(0 0 0)
(0 0 0)
(5.87237e-09 -4.74014e-05 8.19806e-20)
(-5.87237e-09 4.74014e-05 -8.19806e-20)
(0 0 0)
(0 0 0)
(0 0 0)
(0 0 0)
(2.0473e-08 -0.000220921 2.28851e-18)
(7.61331e-08 2.37268e-05 -1.21706e-18)
(-2.76023e-08 -0.000270413 -4.52938e-19)
(-6.6363e-08 0.000231001 -5.47074e-19)
(-5.34662e-08 -8.65677e-05 -1.04805e-18)
(-3.0821e-08 -0.00019338 9.16948e-19)
(1.96828e-07 -3.36358e-05 -5.98811e-19)
(-3.39511e-09 -7.85413e-05 -3.73879e-19)
(-5.26477e-07 -5.5864e-05 1.21779e-18)
(6.94256e-07 8.74664e-06 1.08305e-18)
(9.89921e-08 -0.000107432 1.47167e-18)
(-1.22473e-06 -4.66211e-05 -2.29316e-18)
(1.26719e-06 0.00015308 -2.00992e-18)
(-9.91543e-08 0.000304821 8.88718e-19)
(-8.07857e-07 0.00033182 4.10403e-19)
(4.85996e-07 4.01794e-05 2.63792e-19)
(0 0 0)
(0 0 0)
(3.62306e-06 -0.00315249 -3.23504e-18)
(-5.03375e-06 0.00203381 1.88987e-18)
(1.41068e-06 0.00111868 1.34517e-18)
(-9.88012e-07 -2.06871e-05 2.64431e-19)
(3.28762e-06 -0.00133787 -3.13751e-18)
(-4.7756e-06 -0.000129082 2.73803e-18)
(1.60586e-06 -0.000551082 2.42368e-18)
(5.78674e-06 -0.001156 7.05533e-18)
(-4.71348e-06 0.00202743 -1.72507e-18)
(-2.03125e-07 0.00116729 -7.61889e-18)
(0 0 0)
(0 0 0)
(0 0 0)
(0 0 0)
(1.71821e-15 1.88389e-14 -1.89171e-13)
(-2.99818e-16 2.58569e-15 -2.60302e-14)
(0.0147661 -0.0155579 5.58631e-15)
(0.00474103 0.00738997 -7.24163e-15)
(0.0226005 0.00100172 -1.71705e-15)
(0.00528946 -0.000183117 4.3875e-16)
(-0.0164331 -0.0015227 -1.65249e-15)
(-0.01466 0.00343875 7.13441e-17)
(-0.00563824 9.55351e-05 -3.57778e-16)
(-0.00151329 0.00115996 9.50845e-17)
(0.000460971 -0.000919961 -1.6977e-16)
(9.52681e-05 -0.000558079 1.97728e-16)
(8.48863e-05 -0.000725706 -1.12964e-16)
(-0.000134487 -0.00164302 6.53238e-17)
(-5.36717e-05 -0.00248167 -9.15104e-18)
(0.000169942 0.0011469 -8.36936e-17)
(-0.000153049 0.00405252 3.54258e-16)
(-4.20578e-05 0.000731387 -8.15155e-16)
(-1.35741e-05 -0.000894762 9.79074e-16)
(0.000109359 -0.000644405 -7.74765e-16)
(-0.000395209 -0.000294968 4.52768e-16)
(-0.000115845 -0.000319274 -1.00899e-16)
(-8.74684e-05 -0.000685456 -3.72335e-18)
(3.70407e-05 -0.00122993 5.15489e-17)
(-6.78819e-06 -0.00162683 -5.69987e-18)
(-2.01801e-06 7.09631e-05 -7.2947e-17)
(-8.63047e-07 0.00216314 4.49811e-19)
(1.52209e-06 0.00130442 4.7654e-17)
(-1.01064e-08 9.93081e-06 1.16189e-17)
(-4.55839e-07 -0.000463614 -4.28767e-18)
(3.92446e-07 -0.000661309 -8.43122e-18)
(6.88947e-08 -0.000621104 -2.35035e-17)
(-1.74857e-07 -0.000321801 6.46994e-18)
(-4.95463e-08 -0.000714124 2.36246e-18)
(1.10072e-07 -0.00252306 -1.26644e-17)
(-1.43449e-07 -0.000201544 4.84922e-17)
(5.12396e-08 0.00421527 -1.00339e-18)
(1.03926e-07 0.00247054 -2.78096e-17)
(-1.06371e-07 0.000327461 -1.74728e-19)
(5.25026e-09 -0.000323328 5.50617e-18)
(3.38125e-08 -0.000381864 -2.89019e-18)
(-6.73732e-08 -0.000191597 -3.45317e-18)
(8.52068e-09 -8.45639e-05 1.16501e-17)
(2.06638e-07 -0.000169991 -2.35706e-18)
(-4.9146e-08 1.7808e-05 -9.21445e-19)
(-2.95308e-07 4.25796e-05 -5.96493e-18)
(3.09493e-07 -0.00029301 -2.51719e-18)
(-5.82868e-08 -0.000247658 -2.45524e-18)
(-1.59888e-07 0.00025946 1.76606e-18)
(2.19933e-07 0.000721289 8.75575e-18)
(-3.07029e-07 0.000647477 -1.71605e-18)
(3.88543e-07 0.000316337 -2.13535e-18)
(-1.49939e-07 -0.000117152 1.22243e-18)
(-2.5722e-07 0.000117894 4.05368e-18)
(4.38205e-07 0.00060818 -3.0405e-18)
(-3.80003e-07 0.000413577 -2.77289e-18)
(2.44048e-07 0.000196665 2.11219e-18)
(-7.3526e-08 4.65087e-05 -8.66823e-19)
(0 0 0)
(0 0 0)
(0 0 0)
(0 0 0)
(0 0 0)
(0 0 0)
(0 0 0)
(0 0 0)
(0 0 0)
(0 0 0)
(0 0 0)
(7.32091e-22 7.89306e-18 -7.89306e-17)
(0 0 0)
(0 0 0)
(-1.23727e-17 9.7473e-17 -9.82552e-16)
(-0.00156973 -0.000281038 3.27043e-15)
(-0.00390122 6.29055e-05 -6.4013e-16)
(-0.00468857 0.00269564 -1.53824e-16)
(-0.00208889 -0.00180124 -2.39342e-16)
(0.00285804 0.000367739 2.70629e-16)
(0.00336777 -0.0021443 -5.02708e-16)
(0.000618421 -0.00112011 1.49604e-16)
(-0.0143068 -0.000664783 6.70783e-17)
(1.74916e-05 -0.0022282 1.00173e-16)
(2.28554e-05 0.00164923 -5.69557e-17)
(-1.3801e-05 -0.00455662 1.23822e-16)
(3.06648e-05 0.00360631 -1.51741e-16)
(-7.77974e-05 0.00145704 -1.74698e-17)
(8.50718e-06 6.34827e-06 2.87441e-18)
(-3.77426e-06 3.1441e-05 -2.58744e-18)
(0.00035642 4.058e-05 1.24251e-17)
(-7.40224e-05 -0.000342155 3.96781e-18)
(0.000291994 -0.000208311 -3.46333e-17)
(0.000133107 -9.23181e-05 -8.08974e-19)
(0.000132653 -0.000153812 -1.04311e-17)
(0.000158161 0.000265462 -3.77754e-18)
(-6.73366e-05 0.000157549 8.89125e-18)
(2.47809e-05 -0.000221537 2.33519e-18)
(-2.89059e-06 -0.000750103 -1.41549e-18)
(-4.62287e-06 -0.000399952 5.50796e-18)
(1.1813e-06 0.000904434 -1.322e-17)
(2.22215e-06 -6.85217e-05 7.81955e-18)
(-1.30434e-06 -0.00194416 1.44852e-17)
(3.09475e-07 0.000700295 -2.41552e-17)
(1.90429e-07 0.00198104 -4.04021e-18)
(-1.1736e-07 0.000376445 1.37418e-17)
(2.25726e-08 1.0275e-05 -1.66103e-18)
(-1.48615e-08 -4.90255e-05 -4.36896e-19)
(1.06073e-08 -3.40402e-05 -1.20506e-18)
(6.56658e-09 9.73769e-06 1.37044e-18)
(4.03454e-08 5.50645e-05 -7.35043e-19)
(-1.24586e-07 2.34138e-05 8.88316e-19)
(-5.02468e-07 -3.94296e-05 1.15282e-18)
(-7.76888e-07 -0.000121423 -9.30634e-19)
(3.93073e-07 -1.78929e-05 -7.77862e-19)
(7.98074e-07 -6.59443e-05 2.42977e-19)
(-7.78395e-07 -4.35716e-05 -1.21588e-19)
(2.23716e-07 1.37375e-05 -2.5279e-18)
(5.50732e-07 -3.49373e-05 2.61579e-18)
(-1.64806e-06 -8.64743e-05 3.78313e-18)
(1.34628e-06 -0.000202132 -1.50687e-18)
(2.07567e-06 -0.000318245 -4.81656e-18)
(-2.9592e-06 -0.00020569 4.30461e-18)
(-1.95261e-06 1.33011e-05 3.18016e-18)
(5.08762e-06 0.000145711 -1.21375e-17)
(-3.6305e-06 -0.000317414 8.16026e-18)
(1.57691e-06 -0.000165925 1.01197e-17)
(-4.01136e-07 -0.000118116 -1.21021e-17)
(-1.61867e-06 -0.000656537 -6.87659e-18)
(5.16911e-06 0.000136974 2.30771e-17)
(-5.79939e-06 -0.000364125 -1.34386e-17)
(-2.54622e-06 -0.000298652 -2.54999e-17)
(1.0595e-05 -0.000954097 1.74707e-17)
(-6.48445e-06 8.66853e-05 2.35864e-17)
(2.71926e-06 0.000392886 -7.92627e-18)
(-8.09442e-06 -0.00264892 -6.57635e-18)
(8.05987e-06 0.0029705 -5.48877e-19)
(-9.55077e-06 -0.00253358 -4.70917e-18)
(-9.34592e-06 5.20021e-06 -3.5424e-17)
(3.07757e-05 0.00201414 -1.93571e-17)
(1.56544e-05 -0.0058187 3.76921e-18)
(-2.94859e-05 0.00936712 5.38685e-17)
(0 0 0)
(0 0 0)
(0 0 0)
(0 0 0)
(0.00156973 0.000281038 -3.32318e-15)
(-0.0103892 -0.00190108 -6.05507e-16)
(0.00679051 -0.00159095 2.78986e-16)
(-0.00867759 -0.000267331 -1.68951e-16)
(-0.0231935 -0.00102221 -3.10539e-16)
(0.00485549 -0.00180371 4.63063e-16)
(0.00209051 -5.38845e-05 1.39162e-16)
(0.00310778 0.000848235 -1.91636e-17)
(-0.000399361 -0.000274397 -1.29446e-17)
(-2.11505e-05 -5.63036e-05 1.16142e-17)
(-0.000256201 -0.000363584 4.87472e-18)
(-0.000158252 0.000121191 -1.87766e-17)
(-0.000358436 0.00099333 3.56691e-18)
(-0.000367183 -0.00029982 4.49545e-18)
(7.47756e-05 0.000115105 7.83848e-18)
(9.19975e-05 -1.51008e-06 3.41658e-19)
(-9.23583e-05 5.48391e-05 -2.28175e-18)
(8.31626e-05 -0.000124523 -4.5541e-18)
(0.000105253 -0.000125652 1.27931e-17)
(-0.000145312 -9.19843e-05 -2.86658e-17)
(-0.000146383 -0.000133002 1.32452e-17)
(1.31089e-05 -0.000442522 -1.38337e-17)
(-3.99236e-05 -0.000351791 9.35785e-18)
(1.72614e-05 -9.73105e-05 -8.51711e-19)
(-1.15885e-05 -0.00062528 -1.22009e-18)
(1.00324e-06 -0.00136654 1.07102e-17)
(3.122e-06 0.000987969 -8.20054e-18)
(1.56458e-07 0.00177968 -5.49771e-18)
(-2.05881e-07 0.000446972 4.18907e-18)
(-9.86354e-08 5.38059e-06 -9.08922e-19)
(2.37321e-08 -9.01533e-05 -3.61054e-18)
(1.3641e-08 -9.14932e-05 2.36017e-18)
(-2.19034e-09 -2.86573e-05 1.81878e-18)
(-3.78405e-08 -7.90637e-06 -3.53735e-19)
(-1.17258e-08 -5.0705e-05 -2.25112e-18)
(1.28084e-07 -4.85616e-05 2.99642e-18)
(8.33553e-08 -1.8499e-05 5.94165e-21)
(-6.7612e-07 -7.45122e-05 -7.30438e-18)
(3.04524e-07 -0.000107335 7.40183e-18)
(1.21244e-06 -8.47313e-05 -1.81195e-18)
(-3.79142e-07 -9.85368e-05 -1.79081e-18)
(-1.77802e-08 -3.95731e-05 1.97272e-18)
(3.56764e-07 -1.43337e-05 5.27043e-18)
(-5.33652e-07 -0.000198576 -3.48165e-18)
(3.82142e-07 -0.000265423 -1.23845e-17)
(-3.59596e-07 -0.000176475 1.08974e-17)
(-4.00955e-08 -0.000232718 3.65261e-18)
(3.23769e-06 -0.000348833 -8.20813e-18)
(-9.01064e-06 -0.000457448 -5.01333e-18)
(7.63547e-06 -0.000625798 1.74557e-17)
(8.40719e-06 9.34561e-05 -1.48042e-18)
(-3.24637e-05 -0.000405499 -1.99764e-17)
(4.43437e-05 -0.000159621 1.80822e-17)
(-3.10496e-05 0.000595307 5.33748e-18)
(4.01219e-06 0.000426207 -5.82835e-18)
(3.04501e-06 -0.00171978 -4.6347e-19)
(-2.5383e-05 0.00242618 -4.5138e-18)
(5.71063e-05 -0.00119741 -2.59747e-17)
(-0.000134093 -0.00259345 1.65256e-16)
(9.49767e-05 0.00598082 -1.39055e-16)
(-8.0218e-06 -1.19514e-06 8.88603e-18)
(0 0 0)
(-2.87307e-07 -8.32315e-07 -4.83729e-18)
(0 0 0)
(0 0 0)
(0 0 0)
(0 0 0)
(0 0 0)
(0 0 0)
(5.45759e-07 -0.000115519 3.06806e-18)
(-2.75842e-07 -0.000136405 -5.7639e-18)
(2.48312e-08 -0.000141962 1.82042e-18)
(4.62062e-08 -0.000168236 1.3062e-19)
(-1.9878e-07 -0.000258448 1.16838e-17)
(3.29842e-07 -0.000144569 6.41825e-18)
(-1.20129e-07 6.90212e-05 -1.89148e-17)
(-3.50938e-07 4.36774e-05 1.17086e-18)
(2.86843e-07 -2.68699e-05 -4.98571e-18)
(1.25257e-07 6.98696e-06 4.36083e-19)
(5.49467e-07 -0.000443014 -3.68565e-18)
(-1.58065e-06 -0.000643517 1.65452e-17)
(1.35804e-06 0.000472641 -1.80509e-17)
(-2.23841e-06 0.000246744 3.1815e-17)
(5.66353e-06 -0.0012878 -1.41459e-17)
(-9.17782e-07 -0.000716502 -1.05412e-16)
(-1.02856e-05 0.00292968 -1.14186e-17)
(1.63561e-06 -0.00353939 1.1268e-16)
(1.66387e-08 -0.00202079 1.92577e-17)
(-1.23989e-06 0.00634939 -1.86607e-17)
(7.25237e-06 0.000450563 -9.51175e-18)
(-3.24051e-07 9.4884e-07 -2.26954e-18)
(0 0 0)
(3.94243e-23 1.02001e-18 -1.02001e-17)
(9.44982e-06 4.90959e-06 5.03597e-20)
(0 0 0)
(0 0 0)
(0 0 0)
(8.0218e-06 1.19514e-06 -1.64175e-17)
(0 0 0)
(2.87307e-07 8.32315e-07 -1.06701e-17)
(0 0 0)
(0 0 0)
(0 0 0)
(0 0 0)
(0 0 0)
(0 0 0)
(5.98637e-07 -5.48171e-05 -3.31028e-19)
(-3.70912e-07 -0.000181564 -3.53875e-18)
(3.17086e-08 -0.000219178 1.04511e-18)
(1.94606e-07 -0.000190429 -2.09928e-18)
(-1.42187e-07 -5.67264e-05 -5.68463e-20)
(-3.4462e-07 0.000236477 7.26404e-18)
(7.30304e-07 -0.000121586 2.95952e-18)
(-1.41545e-07 7.17062e-05 -9.44185e-18)
(-7.80738e-07 -3.19374e-05 4.58167e-18)
(-6.53379e-07 -0.000748323 -1.94212e-18)
(3.42585e-06 0.000580715 5.9453e-19)
(-3.25452e-06 -0.00187375 -2.16674e-17)
(3.94654e-07 0.00166041 1.512e-17)
(6.35969e-07 0.00189052 6.29518e-18)
(0 0 0)
(0 0 0)
(0 0 0)
(0 0 0)
(0 0 0)
(0 0 0)
(0 0 0)
(0 0 0)
(0 0 0)
(0 0 0)
(-8.26609e-07 4.44332e-07 1.44132e-19)
(0 0 0)
(0 0 0)
(0 0 0)
(0 0 0)
(0 0 0)
(0 0 0)
(0 0 0)
(0 0 0)
(0 0 0)
(0 0 0)
(0 0 0)
(0 0 0)
(1.3214e-07 -7.53518e-05 1.69968e-18)
(-3.04131e-08 -0.000140074 3.48991e-18)
(-3.96949e-08 -0.000174389 4.87649e-19)
(9.25633e-08 -9.29735e-05 -4.70392e-18)
(-9.50187e-08 -0.000161232 -3.17509e-18)
(-2.80292e-08 1.98671e-07 6.56024e-18)
(8.18394e-08 -0.000116646 -1.33277e-18)
(2.91197e-08 -0.000120601 -8.20952e-18)
(-4.12838e-08 -1.16259e-05 6.38091e-18)
(-1.46343e-07 -0.000232312 8.27227e-18)
(2.02114e-07 -0.000376069 1.16134e-18)
(1.35765e-07 -0.000136275 -1.52914e-17)
(-5.68847e-07 -0.000263587 -4.60244e-18)
(-7.60629e-08 -0.00223275 -2.38014e-17)
(1.47739e-06 0.00343973 8.642e-17)
(-1.1448e-06 0.00142497 -5.08743e-17)
(0 0 0)
(-1.4557e-06 7.5672e-07 3.98661e-21)
(0 0 0)
(0 0 0)
(0 0 0)
(0 0 0)
(0 0 0)
(-2.1542e-06 1.94448e-10 9.66291e-21)
(-6.47415e-07 -4.45661e-07 -5.50026e-19)
(0 0 0)
(-8.50947e-08 -1.38887e-08 -5.09299e-21)
(0 0 0)
(-1.69786e-06 2.63041e-07 -2.93517e-19)
(0 0 0)
(0 0 0)
(0 0 0)
(0 0 0)
(0 0 0)
(-3.67319e-07 -4.87132e-08 3.76744e-19)
(0 0 0)
(0 0 0)
(1.19704e-15 1.67276e-14 -1.67704e-13)
(-2.18102e-16 1.82e-15 -1.83302e-14)
(9.64289e-16 2.42707e-14 -2.42898e-13)
(-0.0865711 0.000658886 -1.05241e-14)
(-0.000410463 0.00267979 5.57178e-16)
(0.00782932 -0.00013349 2.51855e-16)
(-0.0106741 0.000411642 1.84505e-16)
(5.37176e-05 0.00277024 1.71456e-15)
(0.00199335 0.000528598 7.80917e-17)
(0.00117313 -0.00147619 -1.67551e-16)
(-0.00279555 0.000707945 2.24125e-16)
(-0.000743081 -0.000329207 -7.75669e-18)
(0.000151591 0.000326262 -1.22972e-17)
(-0.000102736 7.15247e-05 1.68213e-17)
(-0.000213219 0.000184163 -1.12731e-18)
(0.000122228 0.000118534 1.11409e-17)
(0.000238193 1.35763e-05 -2.57522e-18)
(-4.08777e-05 2.18214e-05 -6.7672e-18)
(6.57573e-05 -0.000136673 1.18686e-17)
(-0.00011514 -0.000108135 -1.74821e-17)
(-0.000343407 -8.83054e-05 2.37461e-17)
(6.67215e-05 -0.000124701 -1.15678e-17)
(4.32063e-05 -6.305e-05 3.5279e-17)
(0.000201407 -0.000323564 -1.27382e-17)
(-1.32775e-05 -0.000337364 -2.42348e-18)
(-2.54627e-05 -9.07782e-05 1.75238e-17)
(7.61408e-06 -1.17263e-05 -1.323e-17)
(-1.70629e-06 2.59333e-06 -9.40007e-18)
(6.18086e-07 4.51864e-05 6.8072e-18)
(-4.9021e-08 8.98132e-05 -6.35177e-18)
(2.3677e-07 0.000167999 2.28907e-18)
(-5.52453e-07 0.000190779 1.64022e-18)
(5.75617e-07 0.000100509 4.50549e-18)
(-0.000809371 8.394e-05 -2.56518e-14)
(-0.0427843 -0.000778084 -4.49427e-15)
(0.0147009 -0.000841616 3.28023e-16)
(0.000333478 -2.20643e-05 -9.95169e-18)
(-0.00013667 0.00022967 1.6313e-16)
(0.0166064 -0.00117534 -1.25074e-16)
(-0.00466271 0.000826539 2.56002e-16)
(-0.00242264 -0.000388059 6.4375e-17)
(-0.0029696 -0.000487022 2.59021e-16)
(-0.00141583 0.000809922 7.05773e-17)
(-0.000327804 0.000120987 -1.50029e-17)
(0.000256872 -0.000460476 -5.24229e-17)
(0.000408965 0.000492273 8.02863e-18)
(-8.28074e-05 0.000219316 -2.61382e-18)
(3.02276e-05 -0.000121187 -1.94707e-18)
(-0.000113121 5.73505e-05 2.99938e-18)
(0.000139033 5.62777e-05 -1.84139e-19)
(5.96473e-05 -0.000100259 -3.79472e-18)
(-2.45136e-05 -9.52744e-05 9.10673e-19)
(0.000239529 -7.3362e-05 -1.57715e-17)
(-4.20866e-05 -0.000209878 7.45896e-18)
(-8.63941e-05 -0.000203582 -9.43247e-18)
(-2.72276e-05 -2.98515e-05 1.16565e-17)
(-1.15276e-06 6.49813e-05 2.80895e-18)
(7.951e-06 9.88423e-06 -7.81678e-18)
(-2.93464e-06 -4.55491e-05 -1.76889e-18)
(4.87201e-07 4.18209e-06 -4.43874e-18)
(-7.93544e-07 7.01278e-05 1.19916e-18)
(1.18508e-06 6.68091e-05 -1.92559e-18)
(-9.21723e-07 7.11944e-06 1.62459e-18)
(4.91388e-07 -5.61268e-05 9.26736e-19)
(0 0 0)
(0.000809371 -8.394e-05 -3.874e-15)
(0.129355 0.000119199 1.50165e-14)
(0 0 0)
(0.00179631 0.000623205 -5.30034e-16)
(0.00465345 -0.000183844 -6.4367e-16)
(0.00185043 -0.000976486 -9.09159e-16)
(-0.00662734 -0.000763414 -6.53009e-16)
(-0.00271818 -7.59891e-05 -2.00391e-16)
(0.0011624 2.79435e-05 -2.68395e-16)
(-0.00251198 -0.000400375 -4.8095e-17)
(-7.05082e-05 -0.000400485 2.94336e-17)
(-0.000120051 -7.19798e-05 2.94356e-19)
(-0.000109949 0.000244495 8.25042e-18)
(-0.000171541 1.38959e-05 3.67782e-19)
(4.11293e-05 0.000167865 9.37413e-19)
(-2.02125e-05 -0.000101527 -2.4535e-18)
(-4.98134e-05 -0.000228598 8.5544e-18)
(-0.000258759 -0.000223995 1.15104e-18)
(-5.69813e-07 -0.000111219 1.05168e-17)
(-2.73442e-05 -0.000116397 -1.03208e-18)
(3.39431e-05 -0.000241354 -5.52529e-19)
(3.39533e-06 -0.000144585 -4.92926e-18)
(2.71999e-05 7.61613e-05 4.14311e-18)
(-4.59246e-08 0.000258591 4.98832e-18)
(1.35141e-05 0.000203093 5.76015e-18)
(7.3937e-06 3.58099e-05 1.59049e-18)
(-6.06431e-07 -1.28265e-05 3.02888e-18)
(-1.43551e-06 2.98834e-05 2.22442e-18)
(8.87211e-07 4.44424e-05 -2.78079e-19)
(2.88914e-08 6.43382e-06 -2.10369e-18)
(-3.67599e-07 -4.68047e-05 -1.63768e-18)
(0 0 0)
(0 0 0)
(-0.00192837 -0.0010971 1.55479e-15)
(0.0005227 0.000993905 -7.47708e-16)
(-0.000532178 -0.000527226 2.75454e-16)
(-0.00559304 0.000175731 8.31944e-16)
(-0.00334054 0.00074157 2.91844e-16)
(-0.00100862 0.000729445 4.21449e-16)
(-9.34515e-05 0.000153781 -1.49726e-17)
(0.000542874 -0.000615729 1.36305e-17)
(-0.00281135 0.00159072 -1.08294e-16)
(-0.000719011 0.00020036 -1.02083e-17)
(-0.000436048 0.000219359 -1.21589e-18)
(0.000154238 -0.000149853 -1.17977e-17)
(-9.79289e-05 -4.48293e-05 -4.71926e-19)
(-1.41287e-05 -8.91973e-06 -4.64505e-18)
(-0.000119544 -7.31998e-05 1.54301e-17)
(4.93659e-05 -0.000196186 -1.53448e-17)
(0.000217116 -0.000184552 -1.79488e-18)
(0.000188817 -0.000195961 1.76e-19)
(7.16365e-05 -0.00026787 -6.84197e-18)
(2.18305e-05 8.4557e-05 -7.08096e-18)
(5.01905e-05 0.00020061 -4.78575e-19)
(6.601e-05 0.000430179 3.9237e-18)
(-5.57184e-05 0.000302045 2.38293e-18)
(-3.09565e-05 7.08826e-05 -4.69156e-18)
(-1.05988e-05 -3.62915e-05 1.11955e-18)
(1.17613e-06 -4.43488e-05 -1.51256e-18)
(3.24467e-07 -5.17977e-05 -1.89094e-19)
(-1.26399e-07 -6.26567e-05 6.56667e-19)
(-8.72172e-08 -6.56258e-05 -8.80406e-19)
(1.03485e-07 -7.07497e-05 2.3292e-18)