/*--------------------------------*- C++ -*----------------------------------*\
  =========                 |
  \\      /  F ield         | OpenFOAM: The Open Source CFD Toolbox
   \\    /   O peration     | Website:  https://openfoam.org
    \\  /    A nd           | Version:  8
     \\/     M anipulation  |
\*---------------------------------------------------------------------------*/
FoamFile
{
    version     2.0;
    format      ascii;
    class       Cloud<passiveParticle>;
    location    "0/lagrangian/kinematicCloud";
    object      positions;
}
// * * * * * * * * * * * * * * * * * * * * * * * * * * * * * * * * * * * * * //

3300
(
(0.399999 0.0648049 0.219066 0.316129) 576 1152 1
(0.399999 0.283871 0.245983 0.0701469) 600 1199 2
(0.313607 0.0431954 0.283871 0.359326) 624 1200 2
(0.264792 0.0676029 0.383733 0.283871) 624 1247 2
(0.4 0.221625 0.0622459 0.316128) 648 1293 1
(0.4 0.283871 0.0891893 0.22694) 672 1340 2
(3.75e-05 0.199981 0.51611 0.283871) 672 1341 2
(0.399998 0.0891774 0.194694 0.31613) 696 1387 1
(0.399998 0.283871 0.221625 0.0945049) 720 1434 2
(0.264782 0.0676084 0.283871 0.383738) 744 1435 2
(0.313571 0.0432142 0.359344 0.283871) 744 1482 2
(0.399999 0.24599 0.0378811 0.31613) 768 1528 1
(0.399999 0.283871 0.0648271 0.251303) 792 1575 2
(0.0487053 0.175646 0.491777 0.283871) 792 1576 2
(0.399999 0.113575 0.170296 0.316129) 816 1622 1
(0.4 0.283871 0.197197 0.118931) 840 1669 2
(0.216029 0.0919858 0.283871 0.408114) 864 1670 2
(0.362264 0.018867 0.334998 0.283872) 864 1717 2
(0.4 0.270374 0.0134968 0.316128) 888 1763 1
(0.399999 0.283871 0.0404531 0.275677) 912 1810 2
(0.097449 0.151275 0.467404 0.283871) 912 1811 2
(0.4 0.137979 0.145892 0.316128) 936 1857 1
(0.399999 0.283871 0.172849 0.14328) 960 1904 2
(0.167375 0.116312 0.283871 0.432442) 984 1905 2
(0.399999 0.00552468 0.278347 0.31613) 984 1951 1
(0.399999 0.283871 0.305239 0.0108904) 1008 1998 2
(0.399999 0.283871 0.0160791 0.300051) 1032 2045 2
(0.1463 0.12685 0.442979 0.283871) 1032 2046 2
(0.399999 0.162336 0.121536 0.316129) 1056 2092 1
(0.399998 0.283871 0.148507 0.167624) 1080 2139 2
(0.11852 0.14074 0.283871 0.456869) 1104 2140 2
(0.399999 0.0299145 0.253957 0.316129) 1104 2186 1
(0.4 0.283871 0.280884 0.0352449) 1128 2233 2
(0.383455 0.00827164 0.283871 0.324402) 1152 2234 2
(0.601119 0.176598 0.00671327 0.215569) 1368 2657 2
(0.41538 0.031754 0.244427 0.308438) 1368 2703 1
(0.26442 0.208096 0.143565 0.383919) 0 2 1
(0.125599 0.0769872 0.344084 0.45333) 0 0 1
(0.501801 0.23297 0.0680873 0.197142) 25 71 2
(0.325038 0.321352 0.0851113 0.268499) 49 74 1
(0.253825 0.356959 0.291009 0.0982078) 49 121 1
(0.56421 0.133926 0.234024 0.0678399) 73 165 1
(0.569323 0.19921 0.220352 0.0111143) 97 212 2
(0.0314905 0.468126 0.245324 0.25506) 121 215 1
(0.516856 0.225443 0.242297 0.0154037) 121 262 1
(0.570471 0.198636 0.0480354 0.182858) 145 306 2
(0.387935 0.289904 0.0857214 0.23644) 169 309 1
(0.160433 0.403654 0.236749 0.199164) 169 356 1
(0.560465 0.0784136 0.235897 0.125225) 193 400 1
(0.559971 0.203886 0.156735 0.0794085) 217 447 2
(0.186394 0.390674 0.186785 0.236147) 241 450 1
(0.34134 0.313201 0.236121 0.109338) 241 497 1
(0.560002 0.15433 0.236129 0.0495391) 265 541 1
(0.559997 0.203873 0.215805 0.0203247) 289 588 2
(0.0705193 0.448612 0.244741 0.236129) 313 591 1
(0.459116 0.254313 0.236129 0.0504415) 313 638 1
(0.559997 0.203873 0.0126571 0.223473) 337 682 2
(0.476973 0.245385 0.0415122 0.23613) 361 685 1
(0.0455438 0.4611 0.236129 0.257228) 361 732 1
(0.559997 0.00552501 0.23613 0.198348) 385 776 1
(0.559999 0.203872 0.0690705 0.167059) 409 823 2
(0.358819 0.304462 0.10059 0.236129) 433 826 1
(0.166085 0.400828 0.23613 0.196957) 433 873 1
(0.56 0.0633396 0.236129 0.140532) 457 917 1
(0.56 0.203871 0.122071 0.114058) 481 964 2
(0.254605 0.356569 0.152696 0.23613) 505 967 1
(0.278584 0.34458 0.23613 0.140707) 505 1014 1
(0.559998 0.122908 0.23613 0.0809639) 529 1058 1
(0.559997 0.203873 0.183787 0.0523428) 553 1105 2
(0.125474 0.421134 0.217263 0.23613) 577 1108 1
(0.418989 0.274376 0.236292 0.0703427) 577 1155 1
(0.559713 0.197608 0.236273 0.00640667) 601 1199 1
(0.515639 0.226052 0.021896 0.236413) 625 1202 1
(0.0125052 0.477619 0.23613 0.273746) 625 1249 1
(0.547395 0.210174 0.23613 0.00630124) 649 1296 1
(0.559997 0.203873 0.0625609 0.173569) 673 1340 2
(0.374254 0.296744 0.0928729 0.23613) 697 1343 1
(0.148771 0.409486 0.236128 0.205615) 697 1390 1
(0.559998 0.0601196 0.236129 0.143753) 721 1434 1
(0.559997 0.203873 0.130632 0.105497) 745 1481 2
(0.20556 0.381091 0.177218 0.23613) 769 1484 1
(0.364839 0.301451 0.23613 0.0975804) 769 1531 1
(0.559997 0.179388 0.23613 0.0244854) 793 1575 1
(0.505078 0.231333 0.0274597 0.23613) 817 1578 1
(0.0412225 0.46326 0.236129 0.259388) 817 1625 1
(0.559998 0.0272769 0.23613 0.176596) 841 1669 1
(0.559998 0.203872 0.0976276 0.138502) 865 1716 2
(0.292191 0.337776 0.133904 0.236129) 889 1719 1
(0.253906 0.356917 0.23613 0.153047) 889 1766 1
(0.559997 0.120261 0.23613 0.0836123) 913 1810 1
(0.559998 0.203872 0.189367 0.0467624) 937 1857 2
(0.108495 0.429624 0.225752 0.236129) 961 1860 1
(0.43628 0.265732 0.23613 0.0618587) 961 1907 1
(0.559997 0.203873 0.00796836 0.228162) 985 1951 2
(0.464368 0.251688 0.0478147 0.23613) 1009 1954 1
(0.0931347 0.437304 0.23613 0.233431) 1009 2001 1
(0.559998 0.0474673 0.236129 0.156405) 1033 2045 1
(0.559999 0.203872 0.124319 0.11181) 1057 2092 2
(0.22675 0.370496 0.166624 0.23613) 1081 2095 1
(0.326255 0.320744 0.23613 0.116871) 1081 2142 1
(0.56 0.15926 0.23613 0.0446111) 1105 2186 1
(0.559997 0.203873 0.233397 0.00273279) 1129 2233 2
(0.00764028 0.480051 0.276178 0.23613) 1153 2236 1
(0.525477 0.221133 0.236129 0.0172616) 1153 2283 1
(0.559997 0.201218 0.23613 0.00265506) 1177 2327 1
(0.0238889 0.446413 0.504185 0.0255134) 1344 2657 2
(0.737227 0.0346837 0.147515 0.0805737) 1369 2703 1
(0.167933 0.399905 0.42696 0.005203) 1 5 2
(0.435184 0.266279 0.0957777 0.20276) 1 4 1
(0.548532 0.209604 0.0683452 0.173518) 25 73 2
(0.107043 0.224804 0.205546 0.462608) 49 74 2
(0.472612 0.0624121 0.279823 0.185153) 49 121 2
(0.487901 0.239921 0.225923 0.0462551) 73 167 2
(0.361265 0.05915 0.244089 0.335496) 97 168 2
(0.217322 0.142349 0.407467 0.232861) 97 215 2
(0.503808 0.146045 0.0859224 0.264225) 121 261 1
(0.484246 0.241747 0.0705531 0.203453) 145 308 2
(0.0466638 0.223765 0.236774 0.492797) 169 309 2
(0.492877 0.0194225 0.21801 0.269691) 169 355 1
(0.480363 0.24369 0.204696 0.0712509) 193 402 2
(0.311787 0.0856855 0.242292 0.360235) 217 403 2
(0.266183 0.107986 0.383038 0.242794) 217 450 2
(0.481458 0.181402 0.0617391 0.2754) 241 496 1
(0.481835 0.242953 0.04775 0.227462) 265 543 2
(0.00101739 0.240118 0.51562 0.243245) 265 544 2
(0.481103 0.0491842 0.194135 0.275577) 289 590 1
(0.481148 0.243297 0.180701 0.0948543) 313 637 2
(0.264073 0.1086 0.243234 0.384093) 337 638 2
(0.314313 0.0834554 0.358973 0.243258) 337 685 2
(0.480412 0.206084 0.0375811 0.275923) 361 731 1
(0.480705 0.243518 0.0241491 0.251627) 385 778 2
(0.0491777 0.215898 0.49154 0.243384) 385 779 2
(0.480087 0.0736742 0.170153 0.276086) 409 825 1
(0.480923 0.243409 0.156531 0.119136) 433 872 2
(0.215754 0.132522 0.243472 0.408252) 457 873 2
(0.362554 0.0587685 0.334853 0.243825) 457 920 2
(0.480372 0.230362 0.013323 0.275943) 481 966 1
(0.480283 0.24373 0.000169762 0.275818) 505 1013 2
(0.0976453 0.191245 0.467306 0.243804) 505 1014 2
(0.480605 0.0978845 0.145684 0.275826) 529 1060 1
(0.480325 0.243708 0.132487 0.143479) 553 1107 2
(0.167114 0.156633 0.243681 0.432572) 577 1108 2
(0.411123 0.0345154 0.310568 0.243793) 577 1155 2
(0.479834 0.243954 0.26523 0.0109821) 601 1201 2
(0.431546 0.0243043 0.243793 0.300357) 625 1202 2
(0.146818 0.166619 0.44272 0.243843) 625 1249 2
(0.480115 0.122548 0.121265 0.276071) 649 1295 1
(0.480093 0.243825 0.108133 0.167949) 673 1342 2
(0.117432 0.181383 0.243772 0.457413) 697 1343 2
(0.461203 0.00946424 0.285527 0.243805) 697 1390 2
(0.479964 0.243889 0.240373 0.0357738) 721 1436 2
(0.382026 0.0491431 0.243715 0.325116) 745 1437 2
(0.197151 0.141483 0.417554 0.243813) 745 1484 2
(0.479995 0.147784 0.0960893 0.276131) 769 1530 1
(0.480175 0.243784 0.0835904 0.192451) 793 1577 2
(0.0681808 0.20592 0.243861 0.482039) 817 1578 2
(0.48001 0.0147515 0.229114 0.276124) 817 1624 1
(0.480075 0.243833 0.216489 0.0596025) 841 1671 2
(0.334777 0.0727012 0.243781 0.348741) 865 1672 2
(0.242865 0.118568 0.394697 0.243871) 865 1719 2
(0.480003 0.170031 0.0738394 0.276127) 889 1765 1
(0.479999 0.243871 0.0609088 0.21522) 913 1812 2
(0.0245659 0.227716 0.243871 0.503846) 937 1813 2
(0.480002 0.0360867 0.207783 0.276128) 937 1859 1
(0.479998 0.243871 0.194822 0.0813085) 961 1906 2
(0.291693 0.0941527 0.243871 0.370283) 985 1907 2
(0.285035 0.0974834 0.373611 0.243871) 985 1954 2
(0.480002 0.191671 0.0521994 0.276128) 1009 2000 1
(0.48 0.243871 0.040923 0.235206) 1033 2047 2
(0.0111539 0.234423 0.510552 0.243871) 1033 2048 2
(0.480003 0.050121 0.193749 0.276127) 1057 2094 1
(0.479998 0.243871 0.187368 0.0887627) 1081 2141 2
(0.281704 0.0991469 0.243871 0.375277) 1105 2142 2
(0.28536 0.0973205 0.373449 0.243871) 1105 2189 2
(0.480002 0.187269 0.0566014 0.276128) 1129 2235 1
(0.480001 0.24387 0.0450057 0.231123) 1153 2282 2
(0.796807 0.0339035 0.117726 0.0515639) 1344 2657 2
(0.497325 0.235208 0.190346 0.0771207) 1369 2659 1
(0.15091 0.408416 0.347981 0.0926934) 1370 8 2
(0.495381 0.127118 0.268439 0.109062) 2 3 1
(0.411478 0.278132 0.182939 0.127451) 26 73 2
(0.0876737 0.440034 0.166517 0.305776) 50 76 1
(0.379185 0.0566278 0.326536 0.237651) 50 120 1
(0.472496 0.247623 0.0552327 0.224649) 74 167 2
(0.343165 0.312288 0.0721547 0.272392) 98 170 1
(0.235772 0.365986 0.286405 0.111837) 98 217 1
(0.466351 0.173884 0.282954 0.076812) 122 261 1
(0.47979 0.243977 0.212361 0.0638727) 146 308 2
(0.0296238 0.469059 0.22164 0.279678) 170 311 1
(0.474591 0.0368477 0.278834 0.209728) 170 355 1
(0.47991 0.243916 0.0792978 0.196876) 194 402 2
(0.29549 0.336126 0.0907062 0.277678) 218 405 1
(0.282851 0.342445 0.276735 0.0979694) 218 452 1
(0.478949 0.191108 0.276655 0.0532882) 242 496 1
(0.478219 0.244761 0.235882 0.0411371) 266 543 2
(0.017903 0.474919 0.276635 0.230543) 266 546 1
(0.479841 0.0581946 0.276209 0.185755) 290 590 1
(0.478995 0.244373 0.103471 0.17316) 314 637 2
(0.246783 0.36048 0.11598 0.276757) 338 640 1
(0.331843 0.31795 0.276374 0.0738334) 338 687 1
(0.479588 0.215462 0.276335 0.0286153) 362 731 1
(0.47927 0.244236 0.260722 0.0157719) 386 778 2
(0.0681137 0.449815 0.276535 0.205537) 386 781 1
(0.479935 0.0835219 0.276162 0.160381) 410 825 1
(0.479528 0.244107 0.129086 0.147279) 434 872 2
(0.195228 0.386258 0.141936 0.276579) 458 875 1
(0.383535 0.292103 0.27619 0.0481714) 458 922 1
(0.479617 0.241432 0.276321 0.002631) 482 966 1
(0.458633 0.254554 0.0105055 0.276308) 506 969 1
(0.120409 0.423667 0.276092 0.179832) 506 1016 1
(0.479784 0.10978 0.276237 0.134199) 530 1060 1
(0.480181 0.243781 0.155339 0.1207) 554 1107 2
(0.1424 0.412671 0.168884 0.276045) 578 1110 1
(0.436685 0.265529 0.276188 0.0215975) 578 1157 1
(0.480271 0.243735 0.0238646 0.252129) 602 1201 2
(0.405704 0.281019 0.0371851 0.276092) 626 1204 1
(0.173041 0.397351 0.276168 0.15344) 626 1251 1
(0.479905 0.135945 0.276176 0.107973) 650 1295 1
(0.479949 0.243896 0.181509 0.094646) 674 1342 2
(0.0903772 0.438682 0.194785 0.276156) 698 1345 1
(0.479819 0.00430217 0.27622 0.239659) 698 1389 1
(0.479971 0.243886 0.0496754 0.226468) 722 1436 2
(0.35428 0.306731 0.0628119 0.276177) 746 1439 1
(0.224599 0.371572 0.276249 0.12758) 746 1486 1
(0.479994 0.161683 0.276132 0.0821914) 770 1530 1
(0.479774 0.243985 0.207282 0.0689594) 794 1577 2
(0.0390715 0.464335 0.220353 0.276241) 818 1580 1
(0.479744 0.0299 0.276257 0.214099) 818 1624 1
(0.479715 0.244013 0.0752265 0.201045) 842 1671 2
(0.302862 0.332439 0.0883942 0.276304) 866 1674 1
(0.276158 0.345792 0.276246 0.101804) 866 1721 1
(0.479688 0.18773 0.276285 0.0562967) 890 1765 1
(0.47989 0.243926 0.233341 0.0428431) 914 1812 2
(0.0137147 0.477014 0.276228 0.233043) 914 1815 1
(0.479902 0.0564846 0.276178 0.187435) 938 1859 1
(0.479709 0.244016 0.102223 0.174052) 962 1906 2
(0.248965 0.359389 0.115304 0.276342) 986 1909 1
(0.329845 0.318949 0.276136 0.07507) 986 1956 1
(0.480022 0.214263 0.276117 0.0295974) 1010 2000 1
(0.479954 0.243895 0.259755 0.0163968) 1034 2047 2
(0.0669217 0.45041 0.27613 0.206539) 1034 2050 1
(0.479997 0.082635 0.27613 0.161238) 1058 2094 1
(0.480004 0.243868 0.128378 0.147749) 1082 2141 2
(0.19586 0.385941 0.142071 0.276128) 1106 2144 1
(0.381776 0.292983 0.276128 0.0491134) 1106 2191 1
(0.480001 0.239407 0.276129 0.0044635) 1130 2235 1
(0.463496 0.252122 0.00825428 0.276127) 1154 2238 1
(0.558042 0.20485 0.206104 0.0310032) 1345 2659 1
(0.174083 0.396829 0.174689 0.254399) 1370 2704 2
(0.108654 0.276034 0.461802 0.15351) 1370 8 1
(0.545531 0.0682276 0.142878 0.243363) 2 6 1
(0.556676 0.205533 0.0916362 0.146154) 26 75 2
(0.158897 0.23045 0.173972 0.436681) 50 76 2
(0.421932 0.0700124 0.305163 0.202892) 50 123 2
(0.568329 0.199707 0.215644 0.0163199) 74 169 2
(0.421395 0.0663112 0.206862 0.305432) 98 170 2
(0.15675 0.204438 0.437754 0.201058) 98 217 2
(0.565193 0.0849161 0.116359 0.233533) 122 263 1
(0.559027 0.204357 0.0639501 0.172665) 146 310 2
(0.108878 0.228327 0.201105 0.46169) 170 311 2
(0.469457 0.0436398 0.2814 0.205503) 170 358 2
(0.560385 0.203679 0.195888 0.0400476) 194 404 2
(0.374179 0.0946121 0.20217 0.32904) 218 405 2
(0.203852 0.178115 0.414204 0.20383) 218 452 2
(0.560508 0.110789 0.0928278 0.235875) 242 498 1
(0.562316 0.202713 0.0387824 0.196188) 266 545 2
(0.0615578 0.250342 0.20275 0.48535) 290 546 2
(0.516666 0.0207893 0.257796 0.204749) 290 593 2
(0.559621 0.204061 0.172635 0.0636833) 314 639 2
(0.326517 0.118046 0.202566 0.35287) 338 640 2
(0.251814 0.154276 0.390222 0.203689) 338 687 2
(0.559941 0.135222 0.0686789 0.236158) 362 733 1
(0.561203 0.203269 0.0149792 0.220549) 386 780 2
(0.0135974 0.273433 0.203639 0.50933) 410 781 2
(0.5592 0.0026708 0.2016 0.23653) 410 827 1
(0.560497 0.203622 0.148418 0.0874622) 434 874 2
(0.281043 0.140471 0.202878 0.375607) 458 875 2
(0.296745 0.131436 0.367757 0.204062) 458 922 2
(0.559816 0.156011 0.0479513 0.236221) 482 968 1
(0.549811 0.00526717 0.203698 0.241224) 506 969 2
(0.0254286 0.267299 0.503415 0.203858) 506 1016 2
(0.561246 0.0210564 0.182192 0.235506) 530 1062 1
(0.560192 0.203775 0.130417 0.105616) 554 1109 2
(0.242749 0.158371 0.204125 0.394754) 578 1110 2
(0.333395 0.113449 0.349431 0.203725) 578 1157 2
(0.560502 0.175258 0.028362 0.235878) 602 1203 1
(0.510912 0.0247233 0.203691 0.260673) 626 1204 2
(0.065555 0.247252 0.483351 0.203842) 626 1251 2
(0.560142 0.0407184 0.163082 0.236057) 650 1297 1
(0.560329 0.203707 0.11145 0.124514) 674 1344 2
(0.205952 0.177139 0.203756 0.413154) 698 1345 2
(0.367978 0.0960833 0.332141 0.203798) 698 1392 2
(0.559956 0.190103 0.0137897 0.236151) 722 1438 1
(0.488542 0.035719 0.203881 0.271857) 746 1439 2
(0.083085 0.238803 0.474586 0.203526) 746 1486 2
(0.559848 0.0481535 0.155794 0.236205) 770 1532 1
(0.559644 0.204049 0.104971 0.131336) 794 1579 2
(0.19532 0.182457 0.203754 0.418469) 818 1580 2
(0.38006 0.0898604 0.326099 0.203981) 818 1627 2
(0.560378 0.198135 0.00554657 0.23594) 842 1673 1
(0.466983 0.0465629 0.203816 0.282638) 866 1674 2
(0.10792 0.225988 0.462168 0.203923) 866 1721 2
(0.560569 0.0615248 0.142061 0.235845) 890 1767 1
(0.560124 0.203809 0.0919692 0.144098) 914 1814 2
(0.175163 0.192394 0.203895 0.428548) 938 1815 2
(0.39549 0.0823211 0.318384 0.203804) 938 1862 2
(0.559974 0.203883 0.234789 0.00135387) 962 1908 2
(0.451648 0.0540957 0.203952 0.290305) 986 1909 2
(0.120204 0.219874 0.456027 0.203895) 986 1956 2
(0.559994 0.0655183 0.138357 0.236131) 1010 2002 1
(0.56001 0.203866 0.0857443 0.150379) 1034 2049 2
(0.156119 0.201939 0.203872 0.438069) 1058 2050 2
(0.421937 0.0690278 0.305161 0.203874) 1058 2097 2
(0.559996 0.203873 0.221511 0.0146209) 1082 2143 2
(0.432109 0.0639473 0.20387 0.300074) 1106 2144 2
(0.127792 0.216105 0.452233 0.20387) 1106 2191 2
(0.560005 0.0665935 0.137275 0.236126) 1130 2237 1
(0.560006 0.203869 0.0844329 0.151693) 1154 2284 2
(0.654689 0.156526 0.133201 0.0555837) 1345 2656 2
(0.381096 0.293323 0.233984 0.0915975) 1370 2661 1
(0.0906719 0.110727 0.470793 0.327808) 1371 2705 1
(0.399445 0.268569 0.316406 0.0155795) 3 6 1
(0.398162 0.28479 0.219171 0.0978774) 27 75 2
(0.0152302 0.476256 0.189932 0.318582) 51 78 1
(0.394781 0.0835946 0.318739 0.202886) 51 122 1
(0.40003 0.283856 0.0863319 0.229781) 75 169 2
(0.28116 0.343291 0.0601973 0.315351) 99 172 1
(0.297225 0.335259 0.317384 0.0501322) 99 219 1
(0.391729 0.241931 0.320265 0.0460754) 123 263 1
(0.397843 0.284949 0.243167 0.0740411) 147 310 2
(0.0325182 0.467611 0.316653 0.183217) 147 313 1
(0.398569 0.106197 0.316845 0.178389) 171 357 1
(0.399194 0.284274 0.11088 0.205652) 195 404 2
(0.23199 0.367876 0.0825062 0.317628) 219 407 1
(0.346527 0.310607 0.316802 0.0260635) 219 454 1
(0.398927 0.263066 0.316665 0.0213412) 243 498 1
(0.3992 0.28427 0.267869 0.0486602) 267 545 2
(0.0819321 0.442904 0.316634 0.15853) 267 548 1
(0.399239 0.130564 0.31651 0.153687) 291 592 1
(0.399481 0.284131 0.135583 0.180805) 315 639 2
(0.182636 0.392554 0.108398 0.316413) 339 642 1
(0.395856 0.285943 0.316455 0.00174527) 339 689 1
(0.399574 0.284084 0.00334334 0.312999) 363 733 2
(0.399441 0.28415 0.292772 0.0236364) 387 780 2
(0.132062 0.417841 0.316345 0.133753) 387 783 1
(0.399647 0.155455 0.316306 0.128592) 411 827 1
(0.399746 0.283998 0.160673 0.155583) 435 874 2
(0.132338 0.417703 0.133632 0.316328) 459 877 1
(0.399833 0.0231386 0.316213 0.260816) 459 921 1
(0.399836 0.283953 0.0284111 0.2878) 483 968 2
(0.396921 0.285411 0.00138712 0.316281) 507 971 1
(0.181525 0.393109 0.316254 0.109113) 507 1018 1
(0.399764 0.180184 0.316246 0.103805) 531 1062 1
(0.399774 0.283984 0.18542 0.130822) 555 1109 2
(0.0828088 0.442466 0.158496 0.316229) 579 1112 1
(0.399796 0.0479811 0.316232 0.235992) 579 1156 1
(0.399776 0.283983 0.0533505 0.26289) 603 1203 2
(0.346898 0.310423 0.0264237 0.316256) 627 1206 1
(0.231676 0.368033 0.316195 0.084096) 627 1253 1
(0.399767 0.205118 0.316245 0.0788704) 651 1297 1
(0.399813 0.283965 0.210329 0.105894) 675 1344 2
(0.033085 0.467329 0.183369 0.316217) 699 1347 1
(0.399833 0.0726099 0.316213 0.211345) 699 1391 1
(0.39983 0.283956 0.0776863 0.238528) 723 1438 2
(0.299031 0.334355 0.0504242 0.31619) 747 1441 1
(0.279004 0.344369 0.316211 0.0604164) 747 1488 1
(0.39985 0.228664 0.316204 0.0552823) 771 1532 1
(0.399907 0.283917 0.233641 0.0825352) 795 1579 2
(0.0127925 0.477475 0.316249 0.193484) 795 1582 1
(0.399961 0.0953642 0.316149 0.188526) 819 1626 1
(0.399726 0.284008 0.100619 0.215646) 843 1673 2
(0.253095 0.357323 0.073366 0.316216) 867 1676 1
(0.325341 0.3212 0.316194 0.0372643) 867 1723 1
(0.399749 0.251882 0.316254 0.0321148) 891 1767 1
(0.399913 0.283915 0.256832 0.0593405) 915 1814 2
(0.05868 0.454531 0.316209 0.17058) 915 1817 1
(0.39994 0.118102 0.316159 0.1658) 939 1861 1
(0.399848 0.283948 0.123258 0.192946) 963 1908 2
(0.208528 0.379608 0.0956831 0.316182) 987 1911 1
(0.369478 0.299132 0.316114 0.0152761) 987 1958 1
(0.399948 0.273602 0.316155 0.0102958) 1011 2002 1
(0.399915 0.283914 0.277965 0.0382067) 1035 2049 2
(0.100578 0.433582 0.316162 0.149679) 1035 2052 1
(0.399945 0.138976 0.316156 0.144923) 1059 2096 1
(0.399968 0.283887 0.143876 0.172269) 1083 2143 2
(0.167464 0.400139 0.116263 0.316135) 1107 2146 1
(0.399996 0.0035288 0.31613 0.280345) 1107 2190 1
(0.400004 0.283869 0.00690307 0.309224) 1131 2237 2
(0.400005 0.283868 0.289923 0.0262044) 1155 2284 2
(0.338419 0.238308 0.0763533 0.34692) 1345 2612 2
(0.0922783 0.317453 0.469989 0.120279) 1346 2661 2
(0.291013 0.310837 0.370623 0.0275273) 1371 11 1
(0.640884 0.125726 0.0377029 0.195687) 3 9 1
(0.528935 0.0570118 0.162391 0.251662) 27 10 2
(0.00640796 0.319216 0.512925 0.161451) 27 78 2
(0.584875 0.0295601 0.223691 0.161873) 51 125 2
(0.639771 0.163985 0.0985131 0.0977303) 75 171 2
(0.258368 0.189628 0.165059 0.386945) 99 172 2
(0.32014 0.161072 0.356059 0.162729) 99 219 2
(0.644021 0.127355 0.0345055 0.194118) 123 265 1
(0.522733 0.0595619 0.162943 0.254762) 147 266 2
(0.055765 0.292626 0.488247 0.163363) 147 313 2
(0.634381 0.00346601 0.198938 0.163214) 171 360 2
(0.64079 0.163475 0.0730749 0.12266) 195 406 2
(0.208236 0.216268 0.163484 0.412011) 219 407 2
(0.370412 0.135453 0.330923 0.163211) 219 454 2
(0.640957 0.154033 0.00935999 0.195651) 243 500 1
(0.472506 0.0842136 0.163405 0.279875) 267 501 2
(0.105874 0.267427 0.463193 0.163507) 267 548 2
(0.640747 0.0217699 0.141727 0.195755) 291 594 1
(0.640585 0.163579 0.0483739 0.147463) 315 641 2
(0.158923 0.240812 0.163598 0.436668) 339 642 2
(0.419503 0.110474 0.306378 0.163646) 339 689 2
(0.640459 0.163641 0.180796 0.0151039) 363 735 2
(0.423591 0.108367 0.163708 0.304334) 387 736 2
(0.154857 0.242777 0.4387 0.163666) 387 783 2
(0.640273 0.0464701 0.117264 0.195993) 411 829 1
(0.640275 0.163733 0.0240324 0.171959) 435 876 2
(0.10991 0.265159 0.163757 0.461174) 459 877 2
(0.468569 0.0858106 0.281844 0.163776) 459 924 2
(0.640227 0.163757 0.15636 0.0396552) 483 970 2
(0.3743 0.133 0.163721 0.328979) 507 971 2
(0.204133 0.218051 0.414062 0.163754) 507 1018 2
(0.640212 0.0710969 0.0926684 0.196023) 531 1064 1
(0.639392 0.000390491 0.163784 0.196433) 555 1065 2
(0.0608428 0.289675 0.163775 0.485707) 579 1112 2
(0.517396 0.0614132 0.257431 0.16376) 579 1159 2
(0.64021 0.163766 0.132165 0.063859) 603 1205 2
(0.326189 0.157 0.163776 0.353035) 627 1206 2
(0.252033 0.194059 0.390112 0.163796) 627 1253 2
(0.640108 0.0951368 0.0686803 0.196075) 651 1299 1
(0.591219 0.024482 0.16378 0.220519) 675 1300 2
(0.0128722 0.313625 0.163809 0.509693) 699 1347 2
(0.56558 0.0372972 0.233339 0.163784) 699 1394 2
(0.640107 0.163817 0.107965 0.0881102) 723 1440 2
(0.277708 0.181218 0.163799 0.377276) 747 1441 2
(0.300674 0.169724 0.365792 0.163809) 747 1488 2
(0.640155 0.119446 0.0443472 0.196051) 771 1534 1
(0.542627 0.0487315 0.163826 0.244815) 795 1535 2
(0.0358847 0.302155 0.498186 0.163774) 795 1582 2
(0.614045 0.01301 0.209107 0.163838) 819 1629 2
(0.640147 0.163798 0.0836367 0.112418) 843 1675 2
(0.229166 0.205549 0.16374 0.401545) 867 1676 2
(0.349139 0.145469 0.341559 0.163833) 867 1723 2
(0.64021 0.143567 0.0201983 0.196024) 891 1769 1
(0.49426 0.0729023 0.163839 0.268999) 915 1770 2
(0.0839428 0.278083 0.474158 0.163816) 915 1817 2
(0.640041 0.0111233 0.152727 0.196109) 939 1863 1
(0.640083 0.163829 0.0595959 0.136492) 963 1910 2
(0.180895 0.229652 0.163772 0.425681) 987 1911 2
(0.397324 0.121347 0.317468 0.163861) 987 1958 2
(0.640032 0.163855 0.192064 0.00404821) 1011 2004 2
(0.445991 0.0970531 0.163823 0.293134) 1035 2005 2
(0.132444 0.253824 0.449907 0.163825) 1035 2052 2
(0.640045 0.0353439 0.128505 0.196107) 1059 2098 1
(0.640008 0.163867 0.0355056 0.16062) 1083 2145 2
(0.133116 0.25345 0.163863 0.44957) 1107 2146 2
(0.444688 0.0976634 0.293785 0.163864) 1107 2193 2
(0.640026 0.163858 0.168698 0.0274182) 1131 2239 2
(0.399674 0.120184 0.163849 0.316292) 1155 2240 2
(0.888502 0.0396207 0.0138852 0.0579925) 1346 2660 2
(0.207305 0.380218 0.22749 0.184987) 1371 2663 1
(0.0156251 0.161097 0.508316 0.314961) 1372 2706 1
(0.319026 0.276223 0.356616 0.0481347) 4 9 1
(0.316393 0.325674 0.234454 0.123479) 28 77 2
(0.0151813 0.47628 0.358605 0.149933) 28 80 1
(0.316442 0.137755 0.357908 0.187895) 52 124 1
(0.320283 0.323729 0.101222 0.254766) 76 171 2
(0.25211 0.357816 0.0351129 0.354961) 100 174 1
(0.319723 0.00331069 0.356267 0.320699) 100 218 1
(0.318207 0.293288 0.357026 0.0314794) 124 265 1
(0.318196 0.324773 0.257746 0.0992851) 148 312 2
(0.0617487 0.452997 0.356488 0.128767) 148 315 1
(0.318943 0.160632 0.356658 0.163768) 172 359 1
(0.319178 0.324282 0.125495 0.231046) 196 406 2
(0.202748 0.382497 0.0582323 0.356523) 220 409 1
(0.319125 0.0283064 0.356567 0.296002) 220 453 1
(0.319063 0.317573 0.356598 0.00676662) 244 500 1
(0.31924 0.324252 0.282491 0.0740182) 268 547 2
(0.111151 0.428295 0.3565 0.104053) 268 550 1
(0.319469 0.185066 0.356395 0.139071) 292 594 1
(0.319494 0.324124 0.150153 0.206229) 316 641 2
(0.1535 0.407122 0.0830041 0.356374) 340 644 1
(0.319579 0.0526655 0.35634 0.271416) 340 688 1
(0.319637 0.324053 0.017803 0.338507) 364 735 2
(0.319692 0.324025 0.306992 0.0492916) 388 782 2
(0.160196 0.403773 0.356282 0.0797494) 388 785 1
(0.319747 0.209418 0.356256 0.114579) 412 829 1
(0.319812 0.323965 0.174629 0.181594) 436 876 2
(0.104605 0.431569 0.107595 0.356231) 460 879 1
(0.319843 0.076931 0.356207 0.247019) 460 923 1
(0.319844 0.323949 0.042163 0.314044) 484 970 2
(0.319796 0.323972 0.331319 0.0249126) 508 1017 2
(0.208745 0.379498 0.356224 0.0555325) 508 1020 1
(0.319844 0.233645 0.356208 0.0903036) 532 1064 1
(0.319833 0.323955 0.198906 0.157306) 556 1111 2
(0.0560554 0.455844 0.131889 0.356212) 580 1114 1
(0.319783 0.101258 0.356238 0.222722) 580 1158 1
(0.31981 0.323966 0.0664579 0.289766) 604 1205 2
(0.319818 0.323962 0.355635 0.000584932) 628 1252 2
(0.257497 0.355123 0.356203 0.0311772) 628 1255 1
(0.319894 0.257981 0.356182 0.0659428) 652 1299 1
(0.319841 0.323951 0.223291 0.132918) 676 1346 2
(0.00735952 0.480191 0.156269 0.356181) 700 1349 1
(0.319842 0.125654 0.356208 0.198296) 700 1393 1
(0.319884 0.323929 0.0909004 0.265286) 724 1440 2
(0.272104 0.347819 0.0239076 0.35617) 748 1443 1
(0.306356 0.330693 0.356194 0.00675681) 748 1490 1
(0.319911 0.282429 0.356174 0.0414865) 772 1534 1
(0.319912 0.323915 0.247724 0.108449) 796 1581 2
(0.0416128 0.463064 0.356148 0.139174) 796 1584 1
(0.319921 0.150071 0.356168 0.173839) 820 1628 1
(0.319901 0.323921 0.115411 0.240767) 844 1675 2
(0.22302 0.372361 0.0483709 0.356248) 868 1678 1
(0.319925 0.0176622 0.356167 0.306246) 868 1722 1
(0.319862 0.306894 0.356198 0.0170463) 892 1769 1
(0.319954 0.323894 0.272142 0.0840098) 916 1816 2
(0.0904542 0.438644 0.35614 0.114762) 916 1819 1
(0.319938 0.174506 0.35616 0.149396) 940 1863 1
(0.319979 0.323881 0.139798 0.216342) 964 1910 2
(0.174303 0.396719 0.0727937 0.356184) 988 1913 1
(0.319982 0.0420652 0.356138 0.281815) 988 1957 1
(0.320016 0.323863 0.00738837 0.348733) 1012 2004 2
(0.319919 0.323911 0.296624 0.0595451) 1036 2051 2
(0.139417 0.414163 0.356169 0.0902516) 1036 2054 1
(0.319978 0.198936 0.35614 0.124947) 1060 2098 1
(0.319987 0.323877 0.164283 0.191853) 1084 2145 2
(0.125403 0.421169 0.097289 0.356139) 1108 2148 1
(0.319984 0.0663722 0.356137 0.257507) 1108 2192 1
(0.319982 0.32388 0.031428 0.32471) 1132 2239 2
(0.319983 0.32388 0.32023 0.0359075) 1156 2286 2
(0.686362 0.0150116 0.172948 0.125678) 1347 2660 1
(0.0262729 0.470735 0.248762 0.25423) 1372 2706 2
(0.238806 0.341848 0.396726 0.0226196) 1372 14 1
(0.721038 0.0638258 0.059526 0.15561) 4 12 1
(0.572902 0.0755389 0.121881 0.229678) 28 13 2
(0.00526237 0.359952 0.513497 0.121288) 28 80 2
(0.583666 0.0700433 0.224296 0.121995) 52 127 2
(0.719774 0.123984 0.0591357 0.0971065) 76 173 2
(0.259611 0.229085 0.12498 0.386324) 100 174 2
(0.318844 0.200679 0.356706 0.12377) 100 221 2
(0.721349 0.087952 0.0352448 0.155454) 124 267 1
(0.524306 0.0985168 0.123202 0.253976) 148 268 2
(0.0541441 0.333247 0.489057 0.123552) 148 315 2
(0.632602 0.0441066 0.199828 0.123463) 172 362 2
(0.720747 0.123497 0.0340697 0.121686) 196 408 2
(0.210401 0.255176 0.123494 0.41093) 220 409 2
(0.368133 0.176379 0.332063 0.123426) 220 456 2
(0.720756 0.11291 0.0105834 0.155751) 244 502 1
(0.474975 0.122909 0.123474 0.278642) 268 503 2
(0.103494 0.308557 0.464382 0.123567) 268 550 2
(0.681891 0.0193212 0.175184 0.123604) 292 597 2
(0.720407 0.123667 0.00962688 0.146299) 316 643 2
(0.161147 0.279666 0.123631 0.435555) 340 644 2
(0.417389 0.151525 0.307434 0.123652) 340 691 2
(0.720352 0.123695 0.14191 0.0140427) 364 737 2
(0.425669 0.147305 0.123732 0.303294) 388 738 2
(0.15284 0.283732 0.43971 0.123719) 388 785 2
(0.720244 0.00555989 0.118189 0.156007) 412 831 1
(0.690185 0.0149935 0.123785 0.171036) 436 832 2
(0.11172 0.304234 0.123777 0.460269) 460 879 2
(0.466703 0.126717 0.282778 0.123801) 460 926 2
(0.720154 0.123794 0.117273 0.0387784) 484 972 2
(0.376229 0.171978 0.123779 0.328014) 508 973 2
(0.20218 0.259 0.415039 0.123781) 508 1020 2
(0.720148 0.0302615 0.0935348 0.156055) 532 1066 1
(0.640719 0.0397236 0.123789 0.195769) 556 1067 2
(0.0621937 0.328981 0.123793 0.485032) 580 1114 2
(0.516343 0.101897 0.257957 0.123802) 580 1161 2
(0.720197 0.123773 0.0924928 0.0635371) 604 1207 2
(0.326733 0.196711 0.123794 0.352762) 628 1208 2
(0.251673 0.23424 0.390292 0.123795) 628 1255 2
(0.720091 0.0549775 0.068848 0.156084) 652 1301 1
(0.591453 0.0643033 0.123841 0.220403) 676 1302 2
(0.0129847 0.353551 0.123828 0.509637) 700 1349 2
(0.565416 0.0773311 0.233422 0.123832) 700 1396 2
(0.720114 0.123814 0.0679766 0.0880952) 724 1442 2
(0.277629 0.221228 0.123828 0.377314) 748 1443 2
(0.300828 0.209609 0.365716 0.123848) 748 1490 2
(0.720088 0.0796134 0.0442132 0.156085) 772 1536 1
(0.542117 0.0889905 0.123822 0.245071) 796 1537 2
(0.0362538 0.341888 0.498003 0.123856) 796 1584 2
(0.614695 0.0526689 0.208782 0.123855) 820 1631 2
(0.720046 0.123847 0.0434556 0.112651) 844 1677 2
(0.228468 0.245793 0.123844 0.401896) 868 1678 2
(0.350022 0.18503 0.341118 0.12383) 868 1725 2
(0.720031 0.104221 0.0196339 0.156114) 892 1771 1
(0.493182 0.113419 0.123862 0.269538) 916 1772 2
(0.0851428 0.317431 0.473558 0.123868) 916 1819 2
(0.663722 0.0281667 0.184267 0.123844) 940 1866 2
(0.720026 0.123858 0.0190022 0.137114) 964 1912 2
(0.179722 0.270163 0.123848 0.426267) 988 1913 2
(0.398417 0.160795 0.316921 0.123866) 988 1960 2
(0.719987 0.123877 0.151735 0.00440032) 1012 2006 2
(0.445224 0.13742 0.12384 0.293517) 1036 2007 2
(0.132786 0.293632 0.449736 0.123846) 1036 2054 2
(0.71115 0.0044378 0.160554 0.123858) 1060 2101 2
(0.710475 0.0047693 0.123864 0.160891) 1084 2101 2
(0.132096 0.293959 0.123863 0.450081) 1108 2148 2
(0.446333 0.136843 0.292962 0.123862) 1108 2195 2