/*--------------------------------*- C++ -*----------------------------------*\
  =========                 |
  \\      /  F ield         | OpenFOAM: The Open Source CFD Toolbox
   \\    /   O peration     | Website:  https://openfoam.org
    \\  /    A nd           | Version:  8
     \\/     M anipulation  |
\*---------------------------------------------------------------------------*/
FoamFile
{
    version     2.0;
    format      ascii;
    class       vectorField;
    location    "0/lagrangian/kinematicCloud";
    object      torque;
}
// * * * * * * * * * * * * * * * * * * * * * * * * * * * * * * * * * * * * * //


3300
(
(0 0 0)
(0 0 0)
(0 0 0)
(3.67382e-23 -1.92272e-37 -4.42994e-23)
(3.67382e-23 -1.92272e-37 -4.42994e-23)
(1.5726e-23 5.46368e-38 -8.83535e-24)
(1.5726e-23 5.46368e-38 -8.83535e-24)
(-5.57136e-24 -4.3542e-37 1.09562e-22)
(-5.57136e-24 -4.3542e-37 1.09562e-22)
(0 0 0)
(-2.61929e-22 1.8706e-33 1.43672e-18)
(-8.54178e-22 -1.13433e-31 -3.77926e-17)
(-5.92249e-22 -1.15303e-31 -3.92294e-17)
(0 0 0)
(0 0 0)
(1.24862e-23 3.25422e-37 1.18921e-23)
(1.24862e-23 3.25422e-37 1.18921e-23)
(0 0 0)
(4.09627e-23 -3.82329e-37 9.47319e-23)
(-3.94461e-23 -9.72094e-37 1.05076e-22)
(2.18286e-23 -2.71066e-36 1.4696e-22)
(1.22989e-22 -2.03889e-36 1.45824e-22)
(2.0752e-23 8.201e-38 9.20876e-24)
(-4.24476e-23 6.51191e-37 -1.52326e-23)
(2.23973e-23 8.279e-37 -1.36333e-23)
(1.55252e-22 8.27127e-37 6.86168e-24)
(9.04067e-23 6.50418e-37 5.26229e-24)
(0 0 0)
(0 0 0)
(0 0 0)
(0 0 0)
(0 0 0)
(0 0 0)
(0 0 0)
(6.27055e-18 1.0626e-17 0)
(-1.06698e-18 2.88187e-18 0)
(0 0 0)
(0 0 0)
(-5.78519e-18 2.10829e-18 -9.75279e-33)
(-3.57084e-16 -1.43829e-15 0.000144386)
(0 0 0)
(0 0 0)
(-8.73282e-19 -3.67387e-21 0)
(0 0 0)
(0 0 0)
(-7.14928e-19 -7.21565e-21 0)
(0 0 0)
(0 0 0)
(-1.13412e-18 -5.59495e-22 0)
(-1.06264e-18 2.7045e-23 0)
(0 0 0)
(-1.14499e-18 -1.95253e-23 0)
(0 0 0)
(0 0 0)
(-1.26559e-18 9.50415e-25 0)
(0 0 0)
(0 0 0)
(-1.38816e-18 6.38249e-26 0)
(-1.00972e-18 -7.36541e-27 0)
(0 0 0)
(0 0 0)
(-9.05345e-19 4.44385e-26 0)
(0 0 0)
(0 0 0)
(0 0 0)
(-1.14926e-18 3.06523e-26 0)
(0 0 0)
(0 0 0)
(-8.94461e-19 -2.07787e-26 0)
(0 0 0)
(0 0 0)
(0 0 0)
(-1.06606e-18 3.91865e-20 0)
(0 0 0)
(0 0 0)
(-1.07928e-18 -3.94907e-28 0)
(0 0 0)
(0 0 0)
(-4.39682e-19 -4.31027e-25 0)
(7.83243e-19 -1.02756e-27 0)
(0 0 0)
(1.5599e-20 -8.69481e-30 0)
(4.16497e-19 -2.85665e-29 0)
(0 0 0)
(1.7466e-19 1.36516e-29 2.01991e-34)
(0 0 0)
(4.54384e-19 2.83821e-30 0)
(0 0 0)
(0 0 0)
(4.58615e-19 -7.3893e-30 0)
(0 0 0)
(2.41156e-19 -2.64758e-30 0)
(0 0 0)
(1.35151e-19 -5.70025e-31 0)
(0 0 0)
(0 0 0)
(1.14309e-19 -1.69394e-31 -1.32197e-34)
(0 0 0)
(5.37967e-20 -1.14012e-32 0)
(0 0 0)
(7.47327e-20 1.33425e-33 0)
(0 0 0)
(2.29608e-21 -7.43966e-35 0)
(0 0 0)
(0 0 0)
(-2.24391e-18 -5.95567e-17 1.4905e-05)
(-1.57281e-16 5.18276e-16 -0.00013754)
(-3.20098e-19 1.24426e-18 0)
(0 0 0)
(-3.07039e-18 1.13359e-18 3.55085e-33)
(-3.57539e-16 -1.43809e-15 0.000144386)
(0 0 0)
(5.71741e-19 -1.49807e-18 1.70402e-06)
(-3.27373e-18 -1.2938e-18 1.70402e-06)
(-2.76376e-17 -2.7322e-19 -5.91053e-07)
(-2.31391e-17 -3.33492e-19 -8.2246e-07)
(1.55002e-17 1.01573e-19 -3.38284e-07)
(1.1384e-17 1.25025e-19 -1.06877e-07)
(0 0 0)
(0 0 0)
(0 0 0)
(-1.03058e-20 2.84479e-23 0)
(-3.54839e-20 3.72613e-23 0)
(0 0 0)
(-5.27338e-19 1.35571e-20 -3.18676e-07)
(-5.44724e-19 1.35614e-20 -3.18676e-07)
(-2.05975e-18 6.42284e-21 5.05596e-07)
(-1.79602e-18 1.54639e-20 2.12923e-07)
(2.60972e-19 9.0554e-21 -2.92673e-07)
(3.69429e-19 -3.99735e-21 -1.96884e-07)
(3.87433e-19 -3.98009e-21 -1.96884e-07)
(0 0 0)
(1.21654e-19 1.43442e-22 4.02123e-09)
(1.21654e-19 1.43442e-22 4.02123e-09)
(0 0 0)
(-2.37144e-19 -9.91729e-23 1.91509e-09)
(-2.50855e-19 -8.99585e-23 1.91509e-09)
(-3.58345e-21 1.33527e-24 -4.1442e-36)
(9.84075e-21 7.97164e-23 -1.40018e-08)
(9.84075e-21 7.97164e-23 -1.40018e-08)
(0 0 0)
(0 0 0)
(-4.47052e-19 4.89231e-21 -2.73345e-06)
(-2.72754e-18 -2.29608e-20 9.39633e-07)
(-2.28403e-18 -2.78469e-20 3.67308e-06)
(0 0 0)
(-4.42649e-20 -7.85292e-22 8.11766e-08)
(-5.47455e-19 -8.38323e-22 7.82769e-08)
(-3.38998e-19 1.98539e-22 -6.06463e-08)
(1.64192e-19 2.5157e-22 -5.77467e-08)
(-3.36308e-19 1.87515e-21 6.57689e-07)
(1.03002e-18 9.95006e-22 -1.01308e-06)
(6.65145e-19 1.09854e-21 -1.2686e-06)
(-7.01178e-19 1.97868e-21 4.02164e-07)
(1.99526e-18 7.13859e-20 1.39646e-05)
(1.99622e-18 7.93631e-20 1.40509e-05)
(2.47516e-20 -8.26376e-20 2.01349e-06)
(0 0 0)
(0 0 0)
(0 0 0)
(-1.71998e-20 -4.62867e-19 1.37154e-06)
(0 0 0)
(0 0 0)
(-8.55144e-22 1.241e-34 9.88959e-37)
(-2.26883e-22 -8.99518e-36 -2.62386e-37)
(0 0 0)
(0 0 0)
(0 0 0)
(0 0 0)
(0 0 0)
(0 0 0)
(0 0 0)
(0 0 0)
(0 0 0)
(0 0 0)
(0 0 0)
(-3.28943e-19 -8.10677e-18 0)
(0 0 0)
(-4.9389e-16 4.15746e-16 -0.000220972)
(-1.9802e-16 -3.43651e-16 -0.000109205)
(7.2234e-17 6.91183e-18 1.24075e-06)
(2.3287e-17 -4.6122e-18 2.17149e-05)
(-3.10871e-17 -9.92208e-18 2.22358e-06)
(-5.19112e-17 -4.28387e-18 -1.24794e-05)
(4.2489e-18 -1.78634e-16 1.61981e-05)
(-1.508e-19 1.17768e-20 0)
(-3.22003e-19 1.46214e-20 0)
(0 0 0)
(0 0 0)
(0 0 0)
(0 0 0)
(0 0 0)
(-3.3776e-20 -4.32079e-23 0)
(0 0 0)
(0 0 0)
(-2.97416e-20 -1.01392e-23 0)
(5.05827e-19 4.70342e-21 9.00985e-08)
(-1.27326e-18 9.26277e-21 -1.15611e-07)
(2.16042e-18 -1.84284e-20 1.33234e-07)
(3.4705e-19 -4.45762e-20 1.77181e-08)
(-2.93094e-18 -1.46108e-20 1.54502e-07)
(8.57315e-19 2.39336e-20 1.64245e-07)
(-6.85796e-20 1.71688e-20 -3.95051e-07)
(2.7462e-19 2.52544e-21 4.96973e-08)
(-1.70507e-18 1.29143e-21 1.35725e-07)
(7.89982e-19 -1.56147e-21 -5.66942e-08)
(1.35636e-18 -4.08974e-22 -2.03385e-08)
(-2.63633e-18 2.28174e-22 3.96397e-08)
(2.05497e-18 -2.34269e-22 -3.48353e-08)
(2.24016e-19 -3.90408e-22 1.89666e-08)
(-1.25443e-18 -5.83548e-22 1.29095e-08)
(9.80616e-19 -4.67585e-22 -4.26737e-08)
(7.26628e-20 2.81657e-22 3.4205e-08)
(-8.24439e-19 3.81856e-22 4.9297e-09)
(3.63563e-20 3.78265e-22 -3.02931e-08)
(1.245e-18 3.46494e-22 1.21149e-08)
(-2.10118e-18 7.74167e-23 1.77122e-08)
(9.01791e-19 9.00418e-22 -2.88191e-08)
(3.18107e-19 1.4862e-21 4.61605e-09)
(-1.24523e-18 7.56215e-22 1.84529e-08)
(5.64594e-19 2.35912e-22 -2.28381e-08)
(-5.38702e-19 -7.43221e-22 8.2327e-08)
(4.46937e-19 -1.21457e-21 1.60902e-07)
(-6.16978e-19 -2.63703e-21 -2.94868e-07)
(-1.84417e-19 -5.54683e-21 1.78768e-08)
(4.57339e-19 -3.8158e-21 2.7145e-07)
(-3.82494e-19 9.25886e-21 -1.11651e-06)
(6.63512e-19 -8.08309e-20 1.05878e-06)
(2.18238e-19 -7.53409e-22 5.60868e-08)
(-3.00715e-19 -1.14388e-21 1.35165e-08)
(4.83903e-19 6.18033e-21 -3.40973e-07)
(2.29263e-18 -4.57375e-19 7.30665e-07)
(-1.38219e-18 2.41544e-21 -6.21771e-08)
(-2.74302e-18 4.60309e-21 6.36954e-08)
(1.17511e-18 4.25055e-22 -5.38014e-08)
(1.49932e-18 -6.4243e-22 3.66209e-08)
(-9.12192e-19 7.8306e-22 -1.03982e-08)
(-1.95318e-18 5.47689e-22 -1.89425e-08)
(-8.59041e-19 -8.05442e-23 3.10709e-08)
(3.95489e-18 -1.66705e-22 3.02139e-08)
(4.7712e-18 -1.71114e-22 -5.01323e-09)
(-7.65934e-17 1.02068e-21 3.28756e-08)
(-8.73516e-17 1.32157e-21 1.71626e-08)
(-1.07581e-17 3.00887e-22 -1.57131e-08)
(0 0 0)
(0 0 0)
(0 0 0)
(0 0 0)
(-3.97986e-16 -1.75564e-16 5.67444e-05)
(-4.58786e-16 2.58824e-17 9.89695e-05)
(0 0 0)
(-5.87169e-19 9.43378e-18 -1.51921e-05)
(-7.62677e-18 1.84569e-18 0)
(0 0 0)
(0 0 0)
(5.17327e-18 -1.80226e-16 8.88032e-06)
(-1.25081e-19 6.31543e-22 -2.89307e-34)
(0 0 0)
(0 0 0)
(-8.75912e-19 5.87462e-21 0)
(0 0 0)
(0 0 0)
(-2.19154e-19 2.68854e-21 0)
(-1.89404e-19 -9.05842e-22 0)
(0 0 0)
(-4.01538e-21 2.94156e-23 0)
(-3.94535e-19 2.77075e-21 0)
(6.69893e-18 1.34815e-20 3.79314e-08)
(7.92353e-18 4.54544e-20 -4.65661e-08)
(9.21372e-19 3.26345e-20 -8.44976e-08)
(-1.09161e-17 -9.13192e-20 -5.67256e-07)
(-9.12284e-18 -8.72729e-20 -5.14774e-07)
(1.45623e-18 3.09466e-21 5.24823e-08)
(0 0 0)
(-2.06498e-20 -1.14024e-22 0)
(0 0 0)
(0 0 0)
(0 0 0)
(-8.01064e-20 -1.74865e-22 0)
(-3.89052e-20 2.77879e-23 0)
(0 0 0)
(0 0 0)
(0 0 0)
(0 0 0)
(0 0 0)
(0 0 0)
(-1.35911e-20 1.22637e-23 0)
(-7.93116e-20 -4.02143e-23 0)
(0 0 0)
(0 0 0)
(-4.18166e-20 2.17525e-23 0)
(0 0 0)
(0 0 0)
(-2.14923e-20 -1.26598e-23 0)
(0 0 0)
(0 0 0)
(0 0 0)
(0 0 0)
(0 0 0)
(0 0 0)
(-8.16869e-21 -1.62196e-25 0)
(0 0 0)
(0 0 0)
(-2.49738e-20 1.41799e-23 0)
(0 0 0)
(0 0 0)
(0 0 0)
(0 0 0)
(0 0 0)
(0 0 0)
(0 0 0)
(-1.16124e-20 -1.06334e-25 0)
(0 0 0)
(0 0 0)
(-1.04867e-20 2.36342e-27 0)
(0 0 0)
(0 0 0)
(0 0 0)
(0 0 0)
(0 0 0)
(9.49119e-18 1.12021e-18 4.23223e-06)
(1.0006e-17 1.17058e-18 4.23223e-06)
(-4.0447e-18 6.86709e-18 4.27717e-05)
(-3.69092e-18 -1.33698e-18 3.63912e-05)
(3.67697e-21 -1.93676e-21 8.05963e-08)
(5.59152e-19 8.72849e-20 -1.24556e-06)
(4.9209e-19 9.0659e-20 -1.32616e-06)
(1.75147e-19 1.05469e-21 1.67121e-09)
(3.70552e-19 2.50462e-21 3.70871e-07)
(1.43343e-18 -5.24731e-21 -2.90711e-08)
(-2.57022e-19 -8.87263e-21 -1.19106e-07)
(-7.02653e-19 -2.26701e-21 2.13858e-07)
(5.96402e-19 -5.56638e-22 -1.84952e-07)
(-3.20735e-19 2.61799e-21 1.4146e-07)
(-1.59322e-19 4.1669e-21 2.01674e-07)
(7.06987e-20 9.6907e-22 -1.38375e-07)
(-2.35947e-20 4.99612e-22 -2.57445e-08)
(-2.02308e-20 6.5647e-22 3.22214e-08)
(3.39201e-20 -3.64912e-24 -1.27225e-08)
(5.55247e-20 -6.15216e-23 -4.06325e-09)
(-1.46134e-19 1.53189e-22 1.0041e-08)
(1.71619e-19 1.7672e-22 7.38332e-09)
(1.29528e-19 -4.7723e-23 -1.67891e-08)
(-1.2893e-19 -1.05102e-22 3.27482e-09)
(7.88605e-21 -1.82048e-23 1.1572e-09)
(-1.65321e-19 5.46776e-23 -6.46393e-10)
(1.48483e-19 4.39446e-23 2.91494e-09)
(1.53645e-19 2.52969e-23 5.23197e-10)
(1.6338e-19 9.27407e-24 -2.24463e-10)
(1.12242e-19 8.4842e-24 -2.14304e-10)
(1.10213e-19 1.36264e-23 -6.33419e-10)
(1.52259e-19 8.7933e-24 -1.41073e-09)
(-2.12941e-19 5.2503e-24 6.49659e-10)
(1.03963e-19 6.23331e-24 -1.33109e-09)
(-4.11998e-20 -7.34309e-24 -2.68715e-10)
(-5.08586e-19 -7.71839e-24 2.26122e-09)
(-9.17228e-19 3.67862e-23 4.32815e-09)
(2.12326e-18 3.00283e-23 -1.05378e-08)
(2.90241e-18 -7.21211e-24 -1.41918e-08)
(1.51797e-19 1.28928e-23 1.39346e-09)
(7.00988e-19 -2.75996e-26 2.39486e-09)
(5.49191e-19 -1.29204e-23 1.0014e-09)
(0 0 0)
(0 0 0)
(0 0 0)
(0 0 0)
(0 0 0)
(0 0 0)
(0 0 0)
(0 0 0)
(0 0 0)
(0 0 0)
(0 0 0)
(0 0 0)
(0 0 0)
(0 0 0)
(0 0 0)
(0 0 0)
(0 0 0)
(0 0 0)
(0 0 0)
(0 0 0)
(0 0 0)
(0 0 0)
(0 0 0)
(0 0 0)
(0 0 0)
(0 0 0)
(0 0 0)
(-1.46241e-18 -3.7431e-20 0)
(0 0 0)
(-4.0781e-18 5.9147e-16 -0.000156886)
(-1.12502e-16 -1.14573e-17 -4.9901e-05)
(-1.12288e-16 -9.64837e-18 2.34334e-06)
(-1.23065e-20 -1.58337e-18 1.86266e-05)
(1.50044e-19 -9.83849e-20 4.06876e-06)
(9.08174e-19 -2.22e-23 1.92252e-07)
(-7.04643e-18 3.70941e-19 -1.449e-06)
(2.45922e-18 -2.62092e-20 -2.39191e-06)
(3.82422e-18 9.23123e-21 -8.82896e-07)
(-3.47449e-18 -2.72788e-20 1.25962e-06)
(2.22788e-18 -4.29476e-20 1.75286e-07)
(-1.02856e-18 -1.9733e-20 1.35271e-06)
(6.6184e-19 -6.83095e-21 -7.78915e-07)
(2.67967e-19 -4.87036e-21 1.25478e-07)
(-6.65619e-19 -3.52285e-21 -4.68472e-07)
(-1.04801e-19 6.93542e-21 -3.44448e-06)
(7.30688e-20 1.19158e-20 -2.84494e-06)
(-7.35747e-21 -3.62895e-19 4.89499e-07)
(-1.20933e-20 -2.80944e-23 -1.78734e-09)
(8.81535e-21 -1.73918e-22 8.2424e-09)
(-8.4579e-22 -1.46612e-22 9.52436e-09)
(-2.36959e-20 1.27312e-22 -1.57851e-08)
(9.21445e-22 1.74707e-22 -4.44011e-09)
(-4.58387e-20 9.44111e-23 1.33664e-08)
(-2.56763e-20 9.33986e-23 4.55762e-10)
(-1.20585e-19 3.75781e-23 -2.44009e-09)
(9.70146e-20 -1.16927e-23 -7.58998e-10)
(1.97384e-19 -2.77178e-25 -1.38952e-10)
(3.54644e-19 2.02802e-23 5.09524e-11)
(4.13089e-19 1.69799e-23 1.15597e-10)
(1.5147e-20 1.17225e-25 3.15694e-10)
(0 0 0)
(-2.31211e-22 4.4891e-26 0)
(5.85991e-21 2.90517e-25 -1.1176e-11)
(5.59432e-21 3.38458e-25 -1.1176e-11)
(0 0 0)
(-7.89126e-22 1.75695e-25 0)
(0 0 0)
(0 0 0)
(-6.05295e-20 7.21337e-24 5.63403e-10)
(-9.29055e-20 7.31057e-24 6.48279e-10)
(-3.23761e-20 9.71965e-26 8.4876e-11)
(0 0 0)
(0 0 0)
(0 0 0)
(0 0 0)
(-1.96136e-22 4.22797e-26 0)
(-1.51249e-22 -7.43221e-25 3.1874e-11)
(-2.29706e-22 -7.23846e-25 3.1874e-11)
(0 0 0)
(0 0 0)
(0 0 0)
(0 0 0)
(-2.71474e-21 1.14052e-24 0)
(0 0 0)
(-1.98888e-22 3.29159e-26 0)
(0 0 0)
(0 0 0)
(0 0 0)
(0 0 0)
(-6.12197e-21 -1.93872e-26 0)
(-1.05231e-18 -5.53407e-22 1.55802e-08)
(-1.06112e-18 -5.50896e-22 1.55802e-08)
(0 0 0)
(0 0 0)
(0 0 0)
(0 0 0)
(-1.84052e-20 1.21501e-24 0)
(0 0 0)
(0 0 0)
(-3.46561e-18 -4.49511e-19 0)
(1.90541e-18 6.04913e-16 -0.00012879)
(0 0 0)
(-1.94524e-18 5.18386e-18 2.23293e-05)
(-9.3522e-19 -4.93882e-19 1.26449e-05)
(1.49116e-19 -3.63544e-19 5.91093e-06)
(-4.18139e-20 2.93895e-19 -3.26406e-06)
(1.54678e-19 1.82451e-18 -3.82675e-06)
(-1.10715e-18 -7.021e-21 -3.69545e-06)
(-5.28149e-19 -4.01968e-21 -1.83738e-06)
(-8.25787e-20 2.58535e-21 5.11657e-08)
(-5.57423e-19 6.89681e-22 -5.63414e-07)
(1.8845e-19 2.02052e-21 3.25712e-07)
(-1.62699e-19 -7.22529e-21 3.00102e-07)
(8.36018e-20 -4.97678e-21 1.017e-06)
(-9.12849e-19 1.5401e-21 -5.64089e-07)
(1.8561e-19 6.95759e-21 2.73132e-07)
(-6.61058e-19 9.84221e-20 -1.08631e-07)
(-1.04248e-18 -3.65482e-19 1.34298e-07)
(8.07896e-19 -1.65251e-22 -5.74136e-08)
(-1.39538e-19 -3.33476e-22 -1.06199e-08)
(-3.8711e-20 -2.29958e-22 4.55903e-08)
(-1.21408e-20 6.13094e-23 -2.80108e-08)
(5.39965e-21 2.45064e-24 -3.04358e-09)
(-1.33713e-20 2.89818e-24 4.13307e-09)
(-2.52963e-20 -1.8191e-25 -5.82205e-11)
(0 0 0)
(0 0 0)
(0 0 0)
(0 0 0)
(0 0 0)
(0 0 0)
(1.22599e-22 -2.32561e-26 -2.22287e-11)
(1.22599e-22 -2.32561e-26 -2.22287e-11)
(0 0 0)
(0 0 0)
(0 0 0)
(0 0 0)
(2.12292e-21 -7.38069e-25 -9.02412e-11)
(7.09043e-21 -8.79162e-27 -4.03912e-10)
(3.27413e-21 3.00028e-25 -4.49271e-10)
(-1.53037e-21 -4.40455e-25 -1.78736e-10)
(1.36778e-21 -7.98248e-25 1.54609e-10)
(6.8975e-22 -7.26455e-25 3.77963e-10)
(-2.01322e-21 2.15809e-25 -2.11544e-10)
(2.35792e-21 1.24819e-24 -6.39862e-10)
(-7.83337e-22 4.217e-24 9.09989e-10)
(9.24677e-22 3.84602e-24 3.16476e-10)
(5.36311e-22 -6.10386e-24 -2.09819e-09)
(-4.04672e-21 -6.40607e-24 1.37999e-09)
(2.75002e-21 4.37714e-24 1.39935e-09)
(1.27898e-21 4.99027e-24 -2.04106e-09)
(-1.01123e-21 -2.10947e-24 6.3519e-10)
(-5.21287e-22 -3.14239e-24 1.43902e-09)
(0 0 0)
(0 0 0)
(-1.1756e-20 -2.73779e-24 -1.04981e-08)
(-1.28805e-20 -6.25218e-24 -6.39616e-09)
(-1.12452e-21 -3.51439e-24 4.10196e-09)
(6.72176e-22 5.70689e-24 2.95796e-09)
(-6.76867e-21 7.98377e-24 -4.07431e-09)
(-1.55882e-20 1.5123e-23 8.34105e-10)
(-1.05654e-20 1.68076e-23 1.0476e-08)
(1.8686e-20 -8.29156e-24 -1.26843e-08)
(4.16826e-20 -1.28877e-23 -1.59398e-08)
(2.05786e-20 -6.34606e-25 -6.45868e-10)
(0 0 0)
(0 0 0)
(0 0 0)
(0 0 0)
(-5.65166e-17 5.15462e-18 0)
(-7.75708e-18 -8.99454e-19 0)
(3.36229e-17 8.03053e-18 4.02077e-05)
(2.48095e-17 -5.61969e-18 1.01001e-05)
(-2.79577e-18 -2.08321e-18 -1.12798e-05)
(-7.39887e-20 -1.3197e-18 5.63397e-06)
(3.34324e-19 -5.46819e-19 1.02777e-06)
(-3.13089e-20 4.43117e-19 4.95275e-06)
(-1.02834e-19 7.94806e-19 -2.51159e-06)
(9.70999e-20 9.14611e-20 -1.22948e-06)
(-3.16162e-19 1.53855e-20 1.91346e-06)
(-1.22266e-19 2.3043e-21 2.37573e-07)
(9.77164e-20 -2.19926e-21 -3.01229e-07)
(-1.62507e-19 -2.14645e-21 -1.48756e-07)
(5.49263e-20 5.49206e-22 4.14442e-07)
(5.68685e-20 3.54281e-21 6.90533e-08)
(8.34356e-19 5.7866e-21 2.49482e-08)
(-7.91349e-19 1.66703e-20 -8.8946e-07)
(-2.19282e-19 7.37495e-20 2.50204e-08)
(3.12416e-19 -1.05832e-19 4.43447e-07)
(-8.24517e-19 3.21318e-22 5.48e-08)
(2.01558e-19 -1.52109e-20 1.26392e-07)
(2.04415e-20 -1.4809e-21 -8.99795e-08)
(4.82412e-20 -1.23706e-21 5.95069e-08)
(-1.3084e-19 -2.91552e-22 -3.21203e-08)
(3.90879e-20 -7.27975e-23 -3.97337e-09)
(6.06046e-20 -3.15795e-23 5.23407e-09)
(-1.61714e-20 -6.66264e-24 2.04246e-09)
(-2.55933e-20 -4.33846e-24 -1.42044e-09)
(3.56493e-21 -1.15153e-23 1.84707e-10)
(-2.12432e-21 -8.07764e-24 1.84202e-10)
(-2.82357e-20 -2.89467e-25 -2.23961e-10)
(6.89426e-20 1.15822e-24 2.63676e-10)
(-8.10306e-20 1.07941e-24 -9.63059e-11)
(3.03622e-20 1.94821e-24 -2.21725e-10)
(1.68205e-20 1.81309e-24 1.82393e-10)
(-2.14046e-20 -4.78937e-25 -8.95473e-11)
(3.44462e-20 -3.56149e-24 -4.29967e-12)
(-1.76552e-20 -2.47155e-24 1.35429e-10)
(2.39852e-20 -6.50809e-25 1.32554e-10)
(-3.08462e-20 6.5594e-25 -1.41885e-10)
(2.89801e-20 -1.45678e-24 -3.44208e-10)
(-1.24088e-20 1.33744e-24 4.08751e-10)
(-6.95303e-21 5.43046e-24 3.61027e-11)
(4.43005e-21 5.77763e-25 -3.85574e-10)
(-6.27764e-21 -6.0685e-24 4.36563e-10)
(1.47649e-20 -4.45973e-24 -2.25694e-10)
(-1.8479e-20 -5.52404e-25 -3.48876e-10)
(2.17674e-20 -1.37748e-24 6.55665e-10)
(-1.1275e-20 -2.57847e-24 -3.48401e-10)
(-5.7368e-21 -2.49917e-24 -5.42138e-11)
(2.84341e-21 -1.62531e-24 2.02317e-10)
(4.4248e-21 -6.04915e-25 -5.285e-10)
(-8.64486e-22 5.36095e-24 6.97221e-10)
(-4.61737e-21 6.07172e-24 4.11781e-11)
(7.2912e-21 -9.68517e-25 -2.30325e-10)
(1.74754e-21 -1.69001e-24 2.85155e-10)
(2.74166e-21 2.07278e-25 -2.21433e-10)
(0 0 0)
(0 0 0)
(0 0 0)
(0 0 0)
(0 0 0)
(0 0 0)
(0 0 0)
(0 0 0)
(0 0 0)
(0 0 0)
(0 0 0)
(-2.36792e-20 2.19627e-24 0)
(0 0 0)
(0 0 0)
(-2.92419e-19 -3.71182e-20 0)
(-3.16388e-20 -1.00782e-17 -8.81235e-07)
(-5.85439e-21 2.57496e-18 1.22287e-07)
(2.04685e-19 -2.12615e-18 -7.37133e-07)
(-1.7862e-19 -7.76721e-19 4.08314e-06)
(8.17578e-20 3.98526e-18 -6.1304e-06)
(-6.46034e-21 1.20727e-18 1.34251e-05)
(-7.68116e-20 5.68933e-19 1.80944e-06)
(-2.50547e-20 2.16732e-19 -2.31172e-06)
(3.17913e-19 3.12811e-22 -4.85541e-08)
(4.34884e-19 -6.55023e-22 -1.70723e-07)
(6.52612e-19 -6.25221e-22 -1.9676e-07)
(5.34447e-19 -1.42585e-21 -2.46905e-07)
(-3.72956e-21 -2.90321e-21 -1.10525e-07)
(3.47957e-21 3.65896e-21 1.3726e-10)
(5.35741e-21 2.60872e-23 1.4482e-08)
(1.41282e-20 1.85738e-20 -8.09982e-07)
(1.52115e-20 4.41095e-22 -1.35383e-07)
(-3.61933e-21 -8.39923e-20 4.56654e-07)
(-2.25865e-20 -1.31824e-21 2.10105e-07)
(4.29148e-20 -2.48812e-20 -4.01509e-07)
(1.76671e-20 -7.48776e-21 1.8879e-07)
(-3.88219e-20 -7.73369e-22 -8.36195e-08)
(1.55487e-20 9.84842e-23 4.39934e-08)
(-2.1028e-20 -2.65349e-23 -2.14336e-08)
(-3.32152e-23 -7.037e-23 6.90802e-10)
(-8.62443e-21 1.30411e-23 1.0855e-08)
(2.89325e-20 7.92739e-23 1.16695e-09)
(4.19296e-20 5.65833e-23 -1.81938e-09)
(2.32639e-20 5.00118e-24 1.25005e-09)
(2.1897e-20 -3.0125e-24 1.23062e-10)
(-3.27532e-20 8.73334e-25 -2.46487e-10)
(3.42189e-21 7.08035e-25 3.75423e-11)
(-1.34505e-21 3.10134e-25 -2.49172e-12)
(9.63111e-22 3.49663e-25 -1.07552e-11)
(1.25475e-21 -2.84327e-26 -2.26068e-11)
(-2.81435e-21 8.12115e-25 -1.60329e-10)
(3.66033e-21 1.91915e-25 7.66607e-11)
(-3.36585e-22 2.28616e-23 1.9716e-09)
(-1.42254e-21 -9.93336e-22 2.68068e-09)
(-3.64248e-21 1.59349e-24 2.81503e-09)
(3.46609e-21 1.55871e-23 -7.29038e-10)
(-2.14367e-21 1.83169e-23 -7.46852e-10)
(5.70743e-22 4.04163e-24 8.73702e-10)
(5.76488e-21 -6.55122e-24 -1.40163e-09)
(-3.96111e-21 1.372e-23 1.83775e-09)
(-3.53926e-21 1.57136e-23 2.73514e-09)
(-5.519e-22 2.52537e-23 -7.42463e-09)
(1.0189e-20 2.7161e-23 -4.97286e-09)
(-1.80834e-20 7.8362e-23 9.66561e-09)
(1.32318e-20 6.57578e-23 7.6733e-10)
(2.90762e-20 1.39323e-22 -3.48481e-09)
(-2.26731e-20 -8.60479e-25 2.73728e-09)
(-1.21713e-20 -9.33679e-24 -9.77988e-10)
(2.14385e-20 -3.04251e-23 4.73543e-09)
(3.7558e-21 -1.24207e-22 -5.63331e-09)
(-5.94184e-20 -5.10523e-23 -3.74262e-09)
(4.14933e-20 -2.24354e-22 2.13999e-08)
(5.80832e-20 -2.78186e-22 -2.63408e-09)
(-6.13624e-20 6.76729e-24 -1.48319e-08)
(1.63898e-20 3.07812e-23 -3.79145e-09)
(2.87766e-20 4.22281e-23 1.24775e-08)
(-3.29928e-20 1.84114e-23 1.30805e-08)
(-1.32409e-19 1.42583e-22 1.66285e-08)
(4.41553e-20 -6.98143e-22 7.3024e-08)
(-1.01007e-19 -1.2136e-21 9.15624e-09)
(-3.42309e-19 -9.38391e-23 -1.29935e-07)
(-7.62872e-20 2.68128e-22 -8.83816e-08)
(0 0 0)
(0 0 0)
(0 0 0)
(0 0 0)
(-4.7465e-20 -1.00782e-17 -8.81235e-07)
(4.50494e-19 2.49164e-18 -5.06991e-06)
(4.29169e-20 1.03549e-18 3.69917e-06)
(3.44951e-21 8.0914e-19 -1.60585e-06)
(1.21601e-19 1.69368e-18 -6.59839e-06)
(-2.93159e-20 1.00619e-18 1.8441e-06)
(8.35636e-21 3.30697e-19 -1.04995e-06)
(-3.29307e-20 -7.2914e-19 -1.9713e-06)
(-1.07876e-20 7.39201e-21 -2.80853e-07)
(-5.42941e-20 -5.59367e-20 7.51514e-09)
(-8.26956e-22 1.83991e-21 -1.10171e-06)
(1.13673e-20 7.49554e-21 -1.88765e-06)
(-1.02699e-20 1.51299e-22 -1.07415e-06)
(-2.02388e-20 -4.10496e-20 1.36497e-07)
(-1.71045e-20 -6.36861e-22 4.93751e-07)
(7.03405e-21 -1.58947e-21 -6.53098e-09)
(-3.643e-21 2.51765e-24 -5.37668e-09)
(-1.90023e-20 1.07879e-21 2.21442e-08)
(-2.61126e-21 6.87561e-22 9.81058e-08)
(-1.45147e-20 3.74704e-20 2.30445e-07)
(-2.05389e-20 1.02963e-21 -2.35712e-07)
(1.89593e-20 4.46105e-21 1.12366e-07)
(-7.10599e-21 1.2311e-21 -6.18399e-08)
(-6.41059e-21 2.76674e-22 6.13892e-09)
(3.02541e-20 5.06477e-23 -1.10488e-08)
(-8.47614e-21 2.40984e-23 2.03553e-08)
(9.87597e-21 4.33995e-23 8.33167e-09)
(6.61729e-21 -3.43016e-24 -1.15873e-09)
(-8.56382e-21 -2.79063e-24 -1.08145e-09)
(6.29289e-23 3.01635e-24 -7.68366e-11)
(-2.85284e-21 1.11741e-24 1.12954e-10)
(8.61129e-21 -2.87506e-25 1.56783e-11)
(-6.83781e-21 -1.46687e-25 -4.31055e-11)
(2.26969e-21 -4.34635e-25 -6.00898e-12)
(-2.27816e-21 -1.3798e-25 2.50904e-10)
(5.38434e-21 1.15659e-24 -8.61506e-11)
(-6.52469e-21 -4.72682e-24 -7.92407e-10)
(-7.30638e-23 -3.01828e-23 1.0681e-09)
(1.14542e-20 -1.02561e-21 3.09972e-09)
(-1.55508e-20 1.22651e-23 1.5512e-09)
(1.04011e-20 -3.44311e-24 -8.335e-10)
(-6.20602e-21 4.02903e-25 4.40954e-10)
(1.36171e-20 6.22865e-24 -6.63114e-10)
(-1.96514e-20 1.66562e-23 3.21819e-11)
(8.44476e-22 2.07744e-23 2.81396e-10)
(2.53635e-20 1.31059e-23 1.23963e-10)
(-1.98347e-20 4.58053e-24 1.62862e-09)
(-3.13779e-22 -1.80484e-26 -8.2924e-09)
(-7.24313e-21 -6.80083e-23 8.86259e-09)
(2.47557e-20 -2.14625e-22 1.33559e-08)
(-6.31506e-20 -3.14433e-22 -3.50252e-08)
(3.1068e-20 -1.2205e-21 3.68721e-08)
(4.18872e-20 -1.3984e-21 1.33742e-09)
(2.11687e-21 -6.07113e-22 -3.86461e-08)
(5.17729e-20 -5.28114e-23 4.25773e-08)
(8.36254e-21 5.59826e-23 2.12279e-08)
(4.01343e-20 -1.11325e-22 4.51719e-08)
(-1.1485e-19 -6.0692e-22 -6.33811e-08)
(5.32962e-19 -4.33181e-21 1.6761e-07)
(6.57107e-19 -3.80682e-21 2.85081e-07)
(8.70031e-23 -2.72634e-20 -3.58829e-09)
(0 0 0)
(7.0953e-23 1.44879e-20 -2.49703e-09)
(0 0 0)
(0 0 0)
(0 0 0)
(0 0 0)
(0 0 0)
(0 0 0)
(-4.76416e-22 -4.03629e-23 1.20284e-10)
(-7.71931e-21 -1.79013e-23 -7.33112e-10)
(1.59333e-20 -1.72232e-24 9.68392e-11)
(-2.09992e-20 9.89299e-25 -7.71618e-11)
(4.23563e-20 1.2728e-24 3.3086e-10)
(-5.53197e-20 -1.09977e-23 -1.3548e-10)
(2.87014e-20 -8.00101e-24 -8.4742e-10)
(9.97246e-21 1.79145e-23 5.66647e-10)
(-8.02626e-21 1.32401e-23 9.51737e-10)
(-3.48714e-21 -5.99946e-24 -2.05293e-10)
(-5.26483e-20 1.20344e-23 -2.44537e-09)
(1.03761e-19 4.21198e-24 6.37991e-10)
(-9.89828e-20 -3.8432e-23 1.42733e-09)
(3.53493e-20 -1.36134e-22 4.06651e-09)
(-2.0899e-20 -3.89396e-22 -6.25944e-09)
(-1.79185e-19 -4.22478e-23 -2.04999e-08)
(-3.41866e-19 6.43354e-22 1.31202e-08)
(-1.73024e-19 1.77811e-22 3.92296e-08)
(2.77585e-19 -2.18038e-22 3.41978e-08)
(6.31284e-20 3.86006e-22 3.77173e-08)
(-8.0462e-21 3.99038e-22 1.97992e-08)
(-7.30724e-21 2.37262e-23 -9.72152e-10)
(0 0 0)
(-3.06002e-21 1.18273e-25 0)
(8.94806e-23 -2.10459e-23 -1.4739e-08)
(0 0 0)
(0 0 0)
(0 0 0)
(-2.17245e-21 -2.72635e-20 -3.58829e-09)
(0 0 0)
(-4.58125e-21 1.4488e-20 -2.49703e-09)
(0 0 0)
(0 0 0)
(0 0 0)
(0 0 0)
(0 0 0)
(0 0 0)
(3.87453e-21 -8.48889e-25 8.05702e-11)
(-4.30666e-21 -1.00423e-24 -6.10138e-10)
(9.97596e-22 -7.26517e-25 4.79258e-10)
(-2.31573e-21 -1.92656e-25 -1.81365e-10)
(8.1417e-21 2.46573e-25 -4.24936e-10)
(-3.48489e-22 6.43097e-24 9.67399e-10)
(-1.48865e-20 1.87364e-24 -1.76835e-10)
(-3.37921e-22 -3.35041e-24 -1.91753e-09)
(6.49739e-21 4.95503e-26 8.92401e-10)
(3.15275e-20 -1.42455e-23 5.32177e-09)
(2.16654e-20 -1.64308e-23 -3.05533e-09)
(-6.68045e-20 -2.78869e-24 -3.71243e-09)
(-9.08702e-20 2.98276e-24 4.92552e-09)
(-2.58548e-20 2.3851e-24 1.8957e-09)
(0 0 0)
(0 0 0)
(0 0 0)
(0 0 0)
(0 0 0)
(0 0 0)
(0 0 0)
(0 0 0)
(0 0 0)
(0 0 0)
(1.47367e-23 -4.04972e-22 1.33297e-09)
(0 0 0)
(0 0 0)
(0 0 0)
(0 0 0)
(0 0 0)
(0 0 0)
(0 0 0)
(0 0 0)
(0 0 0)
(0 0 0)
(0 0 0)
(0 0 0)
(8.53811e-21 4.90873e-25 1.70459e-10)
(-4.63193e-21 5.35613e-25 -1.15807e-10)
(-1.66861e-21 -2.89824e-25 1.10387e-10)
(-3.16766e-21 -8.45732e-25 -5.70075e-11)
(1.98146e-21 -1.68525e-24 -8.27418e-11)
(8.58602e-21 -1.72879e-25 2.43992e-10)
(-2.21579e-20 7.43162e-25 3.71609e-11)
(1.68838e-20 1.34604e-24 -2.62204e-10)
(-6.77169e-21 1.45639e-24 -1.87289e-10)
(6.70937e-21 -1.39902e-24 4.20274e-10)
(-3.74895e-21 -3.22683e-24 2.38908e-10)
(1.79208e-20 4.95484e-24 -8.15657e-10)
(-2.52773e-20 1.4023e-23 5.22117e-10)
(-1.48353e-19 3.64479e-24 2.42001e-09)
(9.52419e-20 -1.36934e-24 -1.82688e-09)
(1.57569e-19 -2.36779e-24 -2.92519e-09)
(0 0 0)
(2.19893e-23 3.03378e-23 2.27073e-09)
(0 0 0)
(0 0 0)
(0 0 0)
(0 0 0)
(0 0 0)
(-9.77436e-28 -3.7864e-23 5.44037e-13)
(1.4705e-23 8.37001e-22 1.32902e-09)
(0 0 0)
(2.70087e-26 1.51129e-23 -4.16644e-11)
(0 0 0)
(-2.39582e-24 8.65089e-22 7.89124e-10)
(0 0 0)
(0 0 0)
(0 0 0)
(0 0 0)
(0 0 0)
(9.67932e-25 -1.1382e-21 -1.46226e-10)
(0 0 0)
(0 0 0)
(-5.01828e-17 3.59111e-18 0)
(-5.45999e-18 -6.54305e-19 0)
(-7.28121e-17 2.89287e-18 0)
(3.17019e-20 1.46682e-17 6.5756e-07)
(4.00748e-19 1.48674e-18 -2.91822e-06)
(-2.04782e-20 -3.38471e-19 -7.0094e-07)
(1.30068e-21 -8.43174e-19 -1.26563e-06)
(2.11971e-19 -1.40856e-18 -1.25737e-06)
(9.61408e-21 -1.85755e-19 -1.94072e-06)
(-8.87026e-19 -1.00231e-18 7.62365e-07)
(-9.32014e-19 -6.69022e-19 2.93304e-06)
(9.50055e-21 -2.485e-21 3.60493e-08)
(-2.1335e-20 -4.29794e-20 -1.42504e-07)
(2.49744e-20 3.57105e-21 6.82368e-07)
(9.58668e-21 -2.63236e-20 6.4732e-07)
(-6.87443e-20 1.10468e-20 4.09892e-07)
(1.1974e-20 -4.53804e-20 -2.80727e-07)
(5.86109e-22 3.72329e-22 6.32733e-08)
(2.32888e-20 1.01667e-21 -1.12971e-08)
(-2.74223e-20 -1.2461e-20 -3.93117e-07)
(8.4933e-21 -1.97677e-20 4.62718e-07)
(1.3624e-21 -4.77629e-20 -1.04937e-07)
(-3.10731e-20 2.04451e-20 -2.57419e-07)
(3.42017e-20 -2.10489e-21 3.01188e-07)
(-2.84851e-20 3.41155e-21 -8.69703e-09)
(2.71991e-20 2.54848e-20 -5.36243e-08)
(-3.40021e-20 -8.22047e-23 1.60419e-08)
(1.31111e-20 -1.23849e-22 -1.81812e-09)
(2.03397e-20 -4.99882e-23 1.46424e-09)
(-2.89567e-20 -2.8857e-24 -1.68285e-10)
(2.32529e-20 -4.22453e-24 -6.71669e-10)
(-2.2369e-20 -5.68989e-24 2.82261e-10)
(2.77647e-20 1.73482e-24 2.6196e-10)
(-8.47567e-18 -7.91255e-18 2.13335e-07)
(8.99068e-20 5.55862e-17 -1.68924e-07)
(-4.45139e-21 1.56479e-18 2.27398e-06)
(-1.92675e-20 8.03004e-19 -1.26055e-06)
(7.61154e-21 1.50514e-18 1.00644e-07)
(4.2535e-20 1.87716e-18 3.18114e-06)
(-4.27074e-20 -4.61328e-19 -9.03422e-07)
(1.2649e-19 5.5984e-19 8.78457e-07)
(2.38524e-20 7.85606e-19 -7.8917e-07)
(-6.95075e-20 4.47035e-20 -1.2231e-06)
(1.25333e-19 9.53973e-20 -4.4441e-07)
(-6.79352e-21 1.1455e-21 -6.08225e-08)
(-6.50593e-20 -4.456e-20 -3.94032e-08)
(1.43433e-20 3.54951e-22 -1.31114e-07)
(-4.29124e-22 4.58845e-22 -1.34706e-07)
(4.63592e-21 -2.81864e-22 1.13652e-07)
(7.09734e-21 -1.32459e-21 1.7172e-09)
(5.98007e-22 -8.26535e-21 -8.53342e-08)
(-3.30177e-21 3.29209e-21 -1.1362e-07)
(-7.08545e-21 -2.31706e-20 2.03437e-07)
(3.28194e-21 4.28163e-21 1.22499e-07)
(3.48254e-21 -4.25327e-22 -1.55406e-07)
(2.69978e-21 -1.11071e-20 1.16933e-07)
(-7.72932e-21 2.56371e-20 -7.76908e-08)
(-4.32366e-21 5.07191e-20 2.67823e-08)
(1.06652e-20 -5.71237e-24 -7.05381e-09)
(-8.86433e-21 2.29015e-24 2.6879e-10)
(3.26748e-22 -7.84987e-24 1.22712e-09)
(7.20429e-21 -3.09132e-24 8.78947e-11)
(-3.9474e-21 4.39533e-24 -6.51466e-10)
(1.44807e-21 8.37593e-25 6.33736e-10)
(0 0 0)
(3.14102e-19 -6.81722e-18 2.13335e-07)
(5.82337e-20 4.09237e-17 -8.26485e-07)
(0 0 0)
(-4.54575e-20 -9.22762e-19 5.37138e-07)
(1.45938e-20 -1.72037e-18 1.84326e-07)
(6.31354e-20 -8.57723e-19 -1.5236e-07)
(1.41048e-20 8.87119e-19 -2.08949e-07)
(4.9268e-21 -1.83569e-19 -2.75888e-07)
(5.39775e-21 -3.13318e-19 9.79663e-07)
(2.32745e-20 5.5684e-20 4.42669e-07)
(1.21928e-20 8.40469e-20 4.96871e-08)
(-2.47458e-23 1.91991e-21 4.84116e-08)
(-7.2251e-21 -3.08685e-20 2.29923e-07)
(4.99476e-21 2.20428e-21 -2.60462e-10)
(2.81712e-21 6.64298e-22 5.95149e-08)
(2.79302e-22 2.93335e-22 -3.29508e-09)
(9.12764e-21 1.52314e-21 2.17522e-07)
(3.92128e-21 -7.3758e-20 -1.29707e-07)
(-2.02507e-20 5.01612e-21 2.21473e-08)
(4.86322e-21 8.56114e-21 -4.68012e-08)
(-1.06962e-20 7.88705e-21 -1.72046e-07)
(8.2698e-21 -2.10216e-20 1.23409e-07)
(4.47119e-21 -9.91532e-21 3.76599e-08)
(-9.5863e-21 1.09163e-22 1.39772e-08)
(8.81943e-21 5.05624e-20 -1.10681e-08)
(-5.38415e-21 -9.75826e-23 1.4393e-08)
(3.93868e-21 1.66848e-23 -5.94568e-09)
(-3.25918e-21 3.05275e-23 1.57427e-10)
(-1.52539e-21 2.37155e-23 1.85396e-09)
(1.66e-21 -1.67183e-24 -8.53554e-10)
(-2.31473e-21 -5.78323e-24 1.31046e-10)
(0 0 0)
(0 0 0)
(1.95243e-18 -2.90291e-18 1.23072e-06)
(2.0483e-18 4.53623e-20 1.55426e-06)
(-4.4685e-20 3.05252e-19 8.01155e-07)
(5.79638e-21 3.18486e-20 2.07536e-07)
(4.36456e-20 1.97754e-19 -9.03008e-07)
(-9.40031e-21 5.57444e-19 -3.18849e-07)
(-1.55084e-20 3.33662e-20 1.4094e-07)
(2.22528e-19 -9.98334e-20 3.8159e-08)
(2.35556e-19 5.94507e-20 -3.81399e-07)
(8.05508e-21 3.92921e-20 8.29128e-07)
(8.58597e-22 6.56656e-23 -3.572e-07)
(-6.74686e-21 -2.94656e-20 1.57173e-07)
(8.45067e-21 -5.26918e-21 -5.13764e-08)
(-7.92801e-21 -7.47157e-21 1.25028e-07)
(-4.03734e-21 -6.08341e-21 -1.76355e-07)
(-1.00744e-20 1.30976e-23 -4.55495e-08)
(-1.12786e-20 -7.44959e-20 -1.74059e-08)
(2.84744e-20 9.27184e-22 7.21149e-08)
(-1.51342e-20 8.48103e-21 5.92988e-08)
(9.7384e-21 -5.98128e-21 -5.82087e-08)
(1.24649e-20 -2.24585e-20 -9.96419e-09)
(-3.14183e-20 7.85379e-22 1.20448e-07)
(-9.45676e-22 3.20963e-22 9.30341e-08)
(-1.24033e-21 1.2234e-20 7.09457e-09)
(1.18495e-21 -2.16373e-22 -2.36877e-08)
(-1.61939e-21 -1.21934e-23 4.57865e-09)
(1.67748e-21 1.10182e-23 7.29322e-11)
(2.98707e-23 6.82559e-24 -5.18883e-10)
(-1.73357e-21 -2.19239e-24 1.21105e-10)
(5.12854e-21 -2.01861e-24 7.32291e-11)
(-6.52632e-21 1.37983e-26 -7.87194e-11)
(5.23928e-21 1.87764e-25 3.61972e-11)
(-7.90966e-21 -1.76102e-25 -1.50702e-11)
(6.25429e-21 -1.28823e-25 -4.76811e-12)
(8.96081e-22 -2.69815e-25 -6.41975e-12)
(-5.44658e-21 -4.136e-25 4.06514e-12)
(1.19294e-20 -2.02765e-25 1.34711e-11)
(-7.11771e-21 -1.01991e-25 -3.81927e-11)
(1.91649e-21 -5.32418e-26 4.80432e-13)