/*--------------------------------*- C++ -*----------------------------------*\
  =========                 |
  \\      /  F ield         | OpenFOAM: The Open Source CFD Toolbox
   \\    /   O peration     | Website:  https://openfoam.org
    \\  /    A nd           | Version:  8
     \\/     M anipulation  |
\*---------------------------------------------------------------------------*/
FoamFile
{
    version     2.0;
    format      ascii;
    class       vectorField;
    location    "0/lagrangian/kinematicCloud";
    object      U;
}
// * * * * * * * * * * * * * * * * * * * * * * * * * * * * * * * * * * * * * //


3300
(
(-6.41043e-19 -0.489881 -9.48313e-18)
(9.61236e-19 -0.489881 -2.19381e-17)
(6.1813e-18 -0.489881 -5.52746e-18)
(-2.52168e-17 -0.489881 -2.64145e-17)
(-1.387e-16 -0.489881 -1.15312e-16)
(-1.29482e-16 -0.489881 -5.53645e-17)
(-3.41293e-17 -0.489881 3.79324e-18)
(9.70099e-18 -0.489881 -9.26679e-18)
(-2.65515e-18 -0.489881 -2.66602e-17)
(1.64848e-18 -0.489881 -2.43866e-17)
(-1.0792e-15 -0.489881 -5.88184e-17)
(4.84715e-14 -0.489881 -6.73347e-17)
(-4.2067e-12 -0.489881 -4.2981e-17)
(-3.74441e-17 -0.489881 -4.18488e-18)
(8.44229e-18 -0.489881 -9.1275e-19)
(-2.50148e-18 -0.489881 -7.39888e-18)
(6.34747e-19 -0.489881 -1.41582e-17)
(1.1698e-18 -0.489881 -4.77073e-17)
(-9.08747e-18 -0.489881 -4.72491e-17)
(-2.74661e-17 -0.489881 -1.17938e-17)
(-1.00704e-17 -0.489881 5.13606e-19)
(2.49014e-18 -0.489881 -1.30635e-18)
(-6.28318e-19 -0.489881 3.97851e-19)
(-8.79259e-20 -0.489881 -6.0333e-18)
(-2.27251e-19 -0.489881 -2.86068e-17)
(-2.11766e-19 -0.489881 -3.14552e-17)
(-4.51132e-19 -0.489881 -7.38746e-18)
(8.39878e-20 -0.489881 8.04665e-19)
(-1.12136e-18 -0.489881 -1.96408e-19)
(2.89783e-18 -0.489881 -8.16945e-18)
(-5.55593e-18 -0.489881 -2.3264e-17)
(-8.89065e-18 -0.489881 -2.66661e-17)
(-2.62855e-18 -0.489881 -3.07973e-17)
(-2.84602e-19 -0.489881 -3.29311e-18)
(-0.188618 0.111306 -1.12936e-12)
(-0.58587 -0.216911 -9.86078e-13)
(-0.491343 -0.399973 -2.53353e-12)
(-0.621941 -0.200588 -1.76071e-12)
(-0.168112 -0.461305 -5.78549e-13)
(-0.0956466 -0.445485 -6.83196e-13)
(-0.0375253 -0.426496 -9.05487e-13)
(-0.0332963 -0.436156 -2.73739e-13)
(0.00177991 -0.423087 -9.18665e-13)
(-0.015773 -0.4536 -1.51562e-12)
(-0.00501081 -0.444467 -1.29319e-13)
(0.00438959 -0.434921 -1.31194e-12)
(-0.000270572 -0.425772 -8.13217e-13)
(-0.000529199 -0.416707 -7.02045e-13)
(0.000198886 -0.403153 -9.25526e-14)
(-1.03425e-05 -0.406375 -5.22612e-13)
(-1.56778e-05 -0.392554 -6.16831e-13)
(6.43442e-06 -0.377325 -3.4049e-13)
(-3.12675e-07 -0.362013 -5.18027e-14)
(-1.17019e-07 -0.347695 -6.15911e-13)
(-2.50278e-07 -0.333274 -3.99763e-13)
(-2.116e-08 -0.318704 -3.62433e-13)
(6.79684e-08 -0.305445 -1.65998e-13)
(-1.33816e-08 -0.291043 -2.64188e-13)
(2.00211e-09 -0.274468 -6.31812e-13)
(1.28096e-08 -0.258768 -1.10954e-12)
(-1.20779e-09 -0.24588 -5.32609e-13)
(-1.14442e-08 -0.233152 -8.82288e-13)
(-1.52773e-09 -0.217393 -1.56331e-13)
(1.27751e-08 -0.200388 -3.35761e-13)
(2.24035e-09 -0.184755 -1.94523e-13)
(-4.57584e-09 -0.171564 -6.82689e-13)
(-6.04957e-09 -0.158329 -3.0488e-13)
(-9.65911e-10 -0.143381 -6.74021e-13)
(2.99901e-09 -0.129098 -3.88959e-13)
(9.22777e-10 -0.117694 -1.63178e-14)
(-0.00756535 -0.111901 -1.26268e-13)
(-0.00285185 -0.0969767 -5.32974e-14)
(-0.00304392 -0.0828092 -3.5301e-13)
(-2.56909e-10 -0.0668118 -3.67304e-13)
(-9.223e-09 -0.0542462 -2.84792e-13)
(1.63782e-11 -0.0447592 -2.83816e-13)
(-1.82745e-10 -0.0317058 -1.82039e-13)
(3.94039e-12 -0.0158164 -8.39317e-14)
(2.26726e-09 -0.00231279 -8.34918e-14)
(8.16037e-12 0.00622003 -1.80828e-13)
(3.41412e-09 0.0099494 -2.92775e-13)
(6.82043e-12 0.012236 -3.45497e-14)
(1.3185e-12 0.0192177 -5.53094e-14)
(1.83921e-13 0.0199714 -1.36631e-13)
(-2.25889e-12 0.0289024 -3.66629e-14)
(-4.90371e-12 0.0307328 -4.77815e-14)
(-2.41483e-13 0.0386879 -1.2413e-13)
(8.19057e-13 0.0480526 -9.24269e-14)
(1.16291e-12 0.0570508 -8.07991e-14)
(1.06233e-12 0.0659148 -5.08923e-14)
(9.2507e-13 0.0748868 -2.17341e-14)
(9.23599e-13 0.0841154 -3.09014e-14)
(8.32878e-13 0.0934017 -5.74045e-14)
(4.30086e-13 0.101937 -6.48569e-14)
(8.98423e-14 0.109204 -2.01273e-14)
(1.0771e-13 0.114933 -8.34267e-15)
(1.77301e-13 0.119454 -8.62716e-15)
(5.32208e-14 0.124066 -2.40466e-14)
(2.76354e-14 0.129909 7.92696e-15)
(-2.79053e-14 0.136792 -3.44148e-14)
(-2.27683e-15 0.143784 9.23737e-16)
(-5.75062e-15 0.149781 -4.90855e-15)
(5.06033e-15 0.155204 -8.78017e-15)
(5.90052e-15 0.166992 9.29464e-15)
(-4.91959e-15 0.203775 -5.51921e-15)
(-0.245339 0.164375 -3.46084e-12)
(-0.247216 0.180836 3.47053e-12)
(-0.611306 -0.157264 6.54672e-13)
(-0.588972 -0.146537 -9.20031e-13)
(-0.156204 -0.423084 1.42733e-13)
(-0.184642 -0.422805 4.5413e-15)
(-0.104459 -0.407308 -1.05045e-12)
(-0.0240582 -0.4241 -3.54692e-13)
(-0.0217325 -0.409282 6.72698e-13)
(-0.0379487 -0.408931 6.17835e-14)
(-0.0265465 -0.422674 -4.52089e-13)
(0.00210113 -0.41757 -2.9025e-14)
(-0.0239735 -0.417784 6.40545e-14)
(-0.0226613 -0.426976 1.27174e-15)
(0.00483991 -0.425254 -1.20464e-14)
(-0.00283472 -0.42366 -3.00353e-14)
(-0.00117152 -0.424406 1.74335e-14)
(-0.000441767 -0.420694 3.71205e-14)
(-0.00218254 -0.423652 -3.00783e-14)
(-0.00121969 -0.426372 -3.02796e-14)
(-0.000105633 -0.42035 3.25112e-14)
(-0.000683263 -0.418142 -6.51381e-15)
(-0.0036389 -0.425612 -3.32928e-14)
(-0.00216844 -0.416551 1.13325e-14)
(0.000400223 -0.416498 2.67233e-14)
(-0.00100745 -0.41558 -7.84263e-15)
(-0.00128801 -0.412869 -2.27647e-14)
(0.000536374 -0.413124 9.19615e-15)
(-0.000744252 -0.416194 1.67182e-16)
(-0.000741865 -0.408874 -1.52056e-14)
(0.000293435 -0.420436 -6.73949e-16)
(-0.000273526 -0.40697 2.08635e-14)
(-0.000150707 -0.40445 9.62622e-15)
(-0.000135334 -0.412335 -1.60045e-14)
(-0.00198498 -0.415994 -7.06954e-15)
(-0.00158471 -0.397935 -3.20345e-15)
(-0.0013187 -0.393119 2.03642e-15)
(0.00279232 -0.391533 1.10661e-15)
(0.00449385 -0.416947 2.48198e-15)
(-0.000673231 -0.393409 9.40249e-15)
(-0.00010745 -0.382117 -7.61298e-15)
(-0.000793082 -0.380555 -9.09167e-15)
(-0.000658324 -0.398763 5.65283e-16)
(-0.00125607 -0.40779 3.4623e-16)
(-0.000904684 -0.370435 1.68059e-15)
(0.000125582 -0.359319 1.86559e-15)
(-0.00148784 -0.385333 7.87262e-16)
(-0.00164933 -0.407999 6.09259e-16)
(0.00015434 -0.368998 -1.68989e-15)
(-0.00188416 -0.43346 -9.01138e-16)
(-0.00183638 -0.378935 -2.32006e-16)
(-0.00125664 -0.455046 4.00087e-16)
(-0.00206788 -0.454233 -2.46843e-16)
(-0.00399158 -0.453194 -4.0976e-16)
(2.55109e-12 -0.455031 8.4044e-16)
(-0.000166388 -0.45463 1.33997e-16)
(2.16203e-13 -0.454502 -6.25339e-16)
(-3.02554e-13 -0.454097 -4.50562e-16)
(-6.57536e-14 -0.453779 -7.48165e-16)
(1.8143e-14 -0.453993 4.86772e-16)
(-2.06118e-15 -0.453306 6.06809e-16)
(-1.0859e-15 -0.452659 -4.52483e-16)
(2.60201e-15 -0.4526 2.41112e-16)
(-3.13875e-16 -0.451939 -3.44792e-16)
(-1.79854e-15 -0.449481 9.45083e-17)
(-1.66401e-15 -0.446134 -7.35095e-16)
(3.87233e-16 -0.44403 -2.01333e-17)
(-2.39213e-16 -0.43977 2.1957e-16)
(2.25251e-16 -0.435775 -7.40055e-18)
(-7.16902e-16 -0.432539 -1.18718e-17)
(-1.84009e-15 -0.436554 -2.89925e-16)
(0.026955 -0.00109373 -5.12916e-13)
(0.0481376 0.0664462 -4.77746e-12)
(0.0620253 -0.377056 6.24624e-12)
(-0.0263213 -0.422506 -2.13728e-12)
(-0.15121 -0.43145 -2.55234e-12)
(-0.101891 -0.418396 8.40583e-13)
(-0.181898 -0.390292 1.17724e-12)
(-0.0135273 -0.433314 -2.04005e-13)
(0.00744958 -0.45074 -5.38489e-13)
(-0.0352801 -0.451759 2.36064e-13)
(-0.0204162 -0.449621 2.95032e-13)
(0.0136348 -0.4477 -1.15451e-13)
(-0.00791363 -0.440908 1.72224e-14)
(-0.00691302 -0.43303 7.26382e-14)
(0.00628979 -0.427193 -5.2774e-14)
(-0.00195622 -0.423621 -4.83749e-14)
(0.000540512 -0.422523 9.204e-14)
(0.00187339 -0.419918 7.2008e-16)
(-0.00098749 -0.418543 -9.7679e-14)
(0.000141517 -0.415115 8.5068e-14)
(0.00160119 -0.410828 4.29116e-14)
(-0.000151953 -0.405682 -9.66828e-14)
(-0.00166285 -0.401206 7.47757e-15)
(-0.000455632 -0.406125 1.24538e-13)
(0.00117004 -0.4138 -4.58008e-14)
(-0.000308498 -0.418213 -8.72663e-14)
(-0.000842157 -0.422288 4.95556e-14)
(0.00104729 -0.424684 5.22542e-14)
(-0.000237093 -0.424163 -6.41484e-15)
(-0.00136542 -0.425783 -4.35001e-14)
(0.000549914 -0.430064 3.26386e-14)
(-0.000118272 -0.427532 -1.26337e-14)
(-0.000435927 -0.420525 -4.05388e-14)
(0.00153687 -0.411926 3.80337e-14)
(0.000832573 -0.399308 6.92438e-15)
(0.00181117 -0.391568 -1.84362e-15)
(0.00196488 -0.397894 1.8814e-14)
(0.000423442 -0.407164 -6.58783e-15)
(0.00252714 -0.408718 -3.77024e-14)
(0.0017434 -0.404927 1.98808e-14)
(0.000683527 -0.400877 -8.4363e-16)
(0.00058057 -0.400194 -2.91381e-14)
(0.000879265 -0.390322 3.65692e-14)
(0.00110205 -0.372458 1.47031e-14)
(-0.000188113 -0.369013 -7.24198e-15)
(0.00114907 -0.376862 -2.45657e-14)
(0.00137592 -0.392795 -1.67491e-15)
(-0.00022078 -0.400609 1.50881e-14)
(0.00167955 -0.396894 -9.06082e-15)
(0.00167382 -0.384287 7.56183e-15)
(0.000422033 -0.364358 -1.63515e-15)
(0.00125346 -0.349799 4.40074e-15)
(0.00237985 -0.360518 1.1012e-14)
(0.00193413 -0.363781 -2.16436e-14)
(-0.000125836 -0.34241 -1.75823e-14)
(-4.5309e-05 -0.348703 3.54825e-14)
(-3.13448e-05 -0.350802 1.96995e-14)
(-3.12157e-05 -0.354854 -4.84992e-14)
(3.29559e-05 -0.348304 -3.57165e-14)
(-0.000404009 -0.317351 1.86471e-14)
(-0.000872146 -0.279075 4.48893e-14)
(1.50691e-05 -0.289145 1.41956e-14)
(0.000313688 -0.244637 -2.25594e-14)
(-0.00014521 -0.326533 -1.3808e-14)
(-1.0217e-05 -0.271903 1.01005e-14)
(2.12137e-05 -0.216564 1.34244e-14)
(-4.48924e-06 -0.37168 -2.3845e-14)
(1.22579e-06 -0.196234 -5.70417e-15)
(-4.59264e-07 -0.149219 1.25413e-14)
(-1.02178e-07 -0.11153 -9.08831e-16)
(3.67783e-15 -0.465464 1.02444e-16)
(0.180099 -0.447199 -5.18029e-12)
(0.271575 -0.451813 1.57926e-12)
(0.120834 -0.590221 2.07698e-12)
(-0.0192633 -0.431272 -5.20423e-12)
(0.0079835 -0.420103 -1.50666e-13)
(-0.10164 -0.419998 1.81424e-12)
(0.00858203 -0.426941 -1.21941e-12)
(-0.0336904 -0.417245 -5.53735e-13)
(-0.00295175 -0.424135 2.75013e-13)
(-0.00212053 -0.419983 7.0982e-14)
(-0.00809369 -0.419103 -1.93587e-13)
(0.00100021 -0.416134 -4.9744e-14)
(-0.00276885 -0.412839 3.82065e-13)
(0.00534175 -0.405662 -1.62969e-13)
(0.00208825 -0.41016 -4.26732e-13)
(-0.00499091 -0.406829 1.73715e-13)
(0.00193071 -0.403696 1.6226e-13)
(0.00115337 -0.400902 -1.46772e-13)
(-0.00290518 -0.396572 2.09277e-14)
(-0.00277775 -0.395532 2.53647e-13)
(0.00430019 -0.394084 -1.81519e-13)
(0.00237145 -0.388185 -3.58394e-13)
(-0.000859853 -0.393903 1.81656e-13)
(0.00107195 -0.378872 2.09867e-13)
(0.00103537 -0.388729 -8.51236e-14)
(-0.00154612 -0.375179 -1.07482e-13)
(-0.000274016 -0.38972 4.04837e-14)
(0.00214743 -0.388899 5.82229e-14)
(-0.000448217 -0.373338 -8.21026e-14)
(-0.0028949 -0.379801 -5.60029e-14)
(0.0010673 -0.378925 1.72738e-14)
(0.0008041 -0.368362 8.26107e-14)
(-0.000260294 -0.364431 5.60595e-14)
(0.000314226 -0.359902 -3.65219e-14)
(-0.0017225 -0.348697 -4.78311e-14)
(-5.46118e-05 -0.336125 -3.64863e-14)
(0.0012214 -0.351817 1.67573e-14)
(-0.000251102 -0.324011 2.22499e-14)
(-0.000599525 -0.320332 -3.47932e-14)
(-0.000313244 -0.347147 3.57297e-14)
(0.000155672 -0.30702 8.9754e-14)
(4.87383e-06 -0.340602 -8.12604e-14)
(-0.000333078 -0.334577 -8.6477e-14)
(-0.000172899 -0.332378 5.90425e-14)
(-8.71512e-05 -0.323579 1.05348e-14)
(0.000267071 -0.311326 -2.38232e-14)
(0.000175275 -0.297561 3.91909e-14)
(-0.000937877 -0.284799 1.96516e-14)
(0.000361996 -0.274739 -4.26836e-14)
(0.0006367 -0.267001 5.89906e-16)
(-0.000219012 -0.259378 1.40189e-14)
(0.000413238 -0.253773 -2.72002e-14)
(-0.000408714 -0.250511 1.33969e-14)
(4.89369e-06 -0.246461 2.57294e-14)
(0.000282321 -0.241076 -3.51848e-14)
(-0.000663816 -0.233962 -1.02301e-14)
(-0.000129032 -0.227252 4.21924e-14)
(0.000198999 -0.212377 7.55099e-15)
(-0.000168136 -0.200279 -3.36239e-14)
(0.000133675 -0.194733 9.53024e-15)
(0.000318764 -0.19386 9.53496e-15)
(7.57749e-05 -0.184455 -3.30112e-14)
(2.09667e-05 -0.173221 3.32199e-15)
(-5.7921e-06 -0.171923 9.61186e-15)
(1.53714e-06 -0.167865 1.75997e-14)
(3.60893e-06 -0.167099 -3.62277e-15)
(-8.82598e-07 -0.161808 -1.93684e-14)
(-3.45974e-08 -0.153512 1.54834e-14)
(-2.67219e-07 -0.130509 -5.46058e-15)
(4.02763e-07 -0.115066 -2.64765e-15)
(2.00015e-08 -0.114077 2.05323e-15)
(0.044102 -0.966892 -4.93398e-12)
(0.262043 -0.744342 -1.18293e-13)
(0.0621936 -0.635911 7.09678e-13)
(-0.0437537 -0.65854 -1.05136e-13)
(-0.0264368 -0.471236 1.72445e-13)
(-0.0057342 -0.478578 6.32825e-14)
(0.0192043 -0.478012 -1.51082e-13)
(-0.0118156 -0.477148 -7.09809e-14)
(-0.0108865 -0.479778 1.36665e-13)
(-0.00893588 -0.478787 5.60333e-14)
(-0.0147106 -0.478296 -1.19207e-14)
(0.000316362 -0.476653 8.10196e-16)
(-0.000851846 -0.475055 -1.79505e-14)
(-0.00014288 -0.473859 -9.7267e-15)
(0.00088626 -0.472391 1.36493e-15)
(-0.00565455 -0.468757 1.23994e-15)
(-0.001365 -0.466775 -7.05919e-15)
(-0.000234967 -0.46867 5.23199e-15)
(-0.000284323 -0.469494 6.83866e-15)
(-0.000473282 -0.46919 -8.35663e-15)
(-0.000356993 -0.468406 -5.1219e-15)
(-5.75201e-05 -0.467756 5.68041e-15)
(-0.000230558 -0.465206 2.81741e-15)
(-0.000311524 -0.461686 -2.61327e-15)
(-0.000137819 -0.456756 8.22064e-16)
(-0.00024336 -0.451057 -3.34957e-15)
(-0.000211498 -0.460625 -1.89677e-15)
(-0.000104117 -0.469894 1.96672e-15)
(-8.70108e-05 -0.471778 -8.70656e-16)
(-0.000209903 -0.472802 2.56071e-15)
(-3.33115e-05 -0.469918 -1.82082e-16)
(-9.70674e-06 -0.469456 -2.19414e-15)
(-0.000167429 -0.468658 -5.02928e-15)
(-0.000119872 -0.467455 -3.08177e-16)
(-9.70649e-05 -0.463924 3.76317e-15)
(-0.00011197 -0.468244 -4.51319e-15)
(-9.64604e-05 -0.458829 -1.8099e-15)
(-9.82138e-05 -0.460325 5.80831e-15)
(-0.000120427 -0.461936 -1.09375e-15)
(-0.000141029 -0.453869 -8.5782e-15)
(-3.68573e-05 -0.468385 3.54625e-15)
(-0.000131868 -0.471568 3.39539e-15)
(-0.000109214 -0.449664 -3.85174e-15)
(-9.22498e-05 -0.472058 -1.66443e-15)
(-0.000102295 -0.471968 -3.65389e-17)
(-8.86336e-05 -0.470869 2.87587e-15)
(-5.72562e-05 -0.469498 -4.69584e-15)
(-0.000107181 -0.468568 -3.03012e-15)
(-9.37917e-05 -0.467866 4.25837e-15)
(-6.8315e-05 -0.466305 -1.34317e-15)
(-0.000168366 -0.46449 -4.60346e-15)
(4.17301e-06 -0.463286 2.48109e-15)
(-0.000242856 -0.462658 3.57043e-15)
(-7.62775e-05 -0.461806 -3.81517e-15)
(-0.00011034 -0.461317 -2.44358e-15)
(-0.000221828 -0.460354 1.72943e-15)
(-6.51192e-05 -0.46006 1.23104e-15)
(-0.000130795 -0.457742 -2.63849e-15)
(-1.29036e-05 -0.457428 -1.69729e-15)
(-0.000153858 -0.455001 1.46235e-16)
(-5.26008e-05 -0.452505 -1.80342e-16)
(8.18225e-05 -0.456704 6.12062e-16)
(-5.0187e-05 -0.45024 -5.38855e-16)
(-9.31478e-05 -0.446353 6.31444e-17)
(-8.55106e-05 -0.443521 -1.07559e-15)
(-5.08885e-05 -0.440768 -9.89726e-17)
(-3.11517e-05 -0.439157 3.83651e-16)
(-1.20061e-05 -0.436975 3.19489e-15)
(7.52512e-07 -0.430142 -1.69972e-15)
(1.24005e-07 -0.423663 -2.58774e-15)
(-1.13103e-08 -0.404257 1.28218e-15)
(0.0302903 -1.18342 2.42564e-13)
(0.152395 -1.07732 -5.8642e-13)
(0.146331 -0.637373 -4.00707e-13)
(-0.0334286 -0.577547 7.90553e-13)
(-0.0296097 -0.566882 -6.76717e-15)
(-0.0199497 -0.485793 -1.43675e-14)
(-0.0594138 -0.485292 1.56917e-14)
(-0.00836591 -0.488606 1.26879e-14)
(-0.00664731 -0.485796 -4.79614e-14)
(0.000745484 -0.47877 -2.25751e-14)
(0.00767579 -0.478826 1.19944e-14)
(-0.000754742 -0.48056 -1.56806e-15)
(4.68506e-05 -0.480499 -2.15292e-15)
(-0.00239802 -0.471427 -3.13324e-15)
(-0.000464062 -0.467872 -2.82123e-15)
(0.000397002 -0.471631 -3.85185e-15)
(-0.0019588 -0.471837 -4.31092e-16)
(-0.000944294 -0.480645 1.08833e-15)
(-0.00133642 -0.485735 -1.83629e-15)
(-0.000220463 -0.486292 -2.78781e-15)
(-0.000366559 -0.485544 -2.72925e-15)
(-0.000222156 -0.485689 -3.8285e-15)
(-0.000225702 -0.485451 -4.50633e-15)
(-0.000180157 -0.485064 -1.8007e-15)
(-0.000196717 -0.484769 1.58269e-15)
(-0.000135158 -0.483263 -1.55861e-15)
(-0.000174816 -0.484171 -3.72799e-15)
(-0.000117799 -0.483205 -4.8761e-15)
(-0.000110476 -0.485795 -5.62325e-15)
(-0.000108564 -0.4824 -2.46622e-15)
(-7.46582e-05 -0.480497 -2.13592e-15)
(-0.000105785 -0.475993 2.81592e-16)
(-0.000148421 -0.476036 2.67812e-16)
(-9.85464e-05 -0.485663 -4.66092e-15)
(-9.42475e-05 -0.485421 -4.81246e-15)
(-8.64783e-05 -0.485555 -3.5666e-15)
(-8.76534e-05 -0.485596 -3.34241e-15)
(-0.000107579 -0.484635 -3.04918e-15)
(-0.000107728 -0.483855 -4.8702e-16)
(-0.000109145 -0.484068 -5.80887e-16)
(-7.36308e-05 -0.483123 -3.40716e-15)
(-6.16971e-05 -0.48304 -2.95158e-15)
(-9.95648e-05 -0.484793 -3.44977e-15)
(-8.26148e-05 -0.4832 -3.00524e-15)
(-0.000109624 -0.482875 -1.53302e-15)
(-5.41496e-05 -0.483431 -1.06863e-15)
(-0.000102663 -0.482533 -8.34838e-16)
(-8.14071e-05 -0.48225 -1.82683e-15)
(-0.000103839 -0.48171 -2.44353e-15)
(-6.7064e-05 -0.481961 -2.54827e-15)
(-0.000119022 -0.481957 -1.99637e-15)
(-3.82428e-05 -0.480752 -2.70687e-15)
(-7.37896e-05 -0.480418 -1.64791e-15)
(-0.000215795 -0.479651 -1.3286e-15)
(-5.51625e-05 -0.478718 -2.34017e-15)
(-0.000200724 -0.477778 -1.32403e-18)
(-1.83654e-05 -0.478433 -1.32783e-15)
(-7.89168e-05 -0.47684 -2.98422e-15)
(-4.46048e-05 -0.476467 -3.04367e-15)
(-7.18386e-05 -0.475889 -2.50823e-15)
(-0.00034345 -0.474984 -1.04846e-15)
(-5.84013e-05 -0.474816 -8.89967e-16)
(1.50156e-06 -0.474155 -1.42217e-15)
(-0.000137411 -0.478145 -3.27908e-15)
(-0.000135165 -0.474331 -2.38448e-15)
(-5.73487e-05 -0.479071 -3.34166e-15)
(1.33153e-05 -0.472302 -4.79043e-15)
(-5.60712e-06 -0.46982 -2.83278e-15)
(-1.82166e-05 -0.46773 -1.06143e-15)
(-3.07371e-05 -0.465613 -2.67479e-15)
(-4.73555e-05 -0.463025 -1.03214e-15)
(-0.0273325 -0.774882 -4.76938e-13)
(0.102763 -0.792278 6.08272e-13)
(0.0279351 -0.555785 -5.68712e-14)
(-0.041955 -0.53495 -1.40537e-13)
(-0.0209491 -0.499613 6.71712e-14)
(-0.0217282 -0.494139 2.42256e-15)
(-0.0401306 -0.490381 -1.13098e-15)
(-0.00582719 -0.479444 -1.23987e-14)
(-0.00816261 -0.48674 2.42767e-14)
(-0.000853084 -0.485688 1.19087e-14)
(-0.00394575 -0.48607 -2.63395e-15)
(-0.000944511 -0.484438 -3.59998e-16)
(0.00115551 -0.48537 1.21187e-15)
(-0.000407435 -0.483347 2.99932e-16)
(-0.000199033 -0.483034 -2.12558e-15)
(0.000352293 -0.484089 -1.30063e-15)
(5.88292e-05 -0.483753 3.5453e-16)
(-0.00123294 -0.484715 9.45789e-16)
(-0.00123064 -0.484517 -1.08755e-15)
(-0.00108006 -0.485642 -5.91787e-16)
(2.15e-05 -0.486455 -9.35901e-16)
(-0.000241244 -0.485958 -1.44666e-15)
(-0.000202468 -0.487211 -1.11512e-16)
(-0.000180047 -0.486841 -2.61215e-17)
(-0.000145381 -0.487237 3.22821e-16)
(-0.000134316 -0.485629 -1.12865e-17)
(-0.000139443 -0.487605 -1.1863e-15)
(-0.000105636 -0.488135 -8.4133e-16)
(-7.54073e-05 -0.48806 -2.33303e-16)
(-8.74678e-05 -0.487945 -5.61481e-16)
(-6.87652e-05 -0.487878 -7.0263e-16)
(-6.60502e-05 -0.487764 -1.03468e-16)
(-0.000107312 -0.487492 -5.87911e-16)
(-8.14903e-05 -0.487215 -8.15773e-16)
(-6.61884e-05 -0.487652 -8.8037e-16)
(-6.78025e-05 -0.487121 -1.07009e-15)
(-8.02396e-05 -0.487224 -1.4787e-16)
(-0.000113884 -0.48705 -5.42068e-16)
(-0.000102355 -0.486861 -1.51807e-16)
(-0.000102204 -0.487107 5.96734e-16)
(-7.16565e-05 -0.486923 -1.01172e-15)
(-6.25156e-05 -0.487271 -1.05204e-15)
(-8.556e-05 -0.487076 -6.77529e-16)
(-6.20298e-05 -0.486805 -9.86281e-16)
(-0.000115923 -0.48684 -1.10262e-16)
(-6.55235e-05 -0.486779 -4.65545e-16)
(-4.62337e-05 -0.486562 -3.81763e-16)
(-8.58588e-05 -0.48642 2.46532e-16)
(-6.33708e-05 -0.486132 -3.88741e-16)
(-6.81179e-05 -0.48588 -2.63337e-16)
(-1.83093e-05 -0.485636 -7.04647e-16)
(-4.91088e-05 -0.485249 -9.26304e-16)
(-5.86028e-05 -0.484573 -3.74088e-16)
(-0.000175175 -0.483742 -6.76066e-17)
(-6.46947e-05 -0.482863 -1.75377e-17)
(-7.58839e-05 -0.482174 -6.78105e-16)
(-4.71783e-05 -0.481521 -2.14841e-16)
(-3.45445e-06 -0.482631 -3.33474e-16)
(-2.16472e-05 -0.483654 -9.2766e-16)
(4.13797e-05 -0.481044 -3.06668e-16)
(-0.000161015 -0.479519 -1.0582e-16)
(1.85464e-05 -0.479669 -1.60711e-16)
(8.20113e-05 -0.479228 -9.54151e-17)
(-0.000100411 -0.477655 -2.62605e-16)
(-8.9356e-05 -0.47859 -4.7323e-16)
(1.55415e-06 -0.482347 -5.4398e-16)
(-8.32311e-06 -0.479529 -3.91765e-16)
(-3.88896e-05 -0.477639 -1.44997e-17)
(-2.17529e-05 -0.475007 -5.13525e-17)
(-2.64546e-05 -0.472208 -6.52377e-16)
(5.64509e-06 -0.468122 -1.90432e-16)
(-0.0448648 -0.49191 4.92766e-13)
(0.0567304 -0.489254 1.06527e-12)
(-0.0116233 -0.487618 -4.34783e-13)
(-0.0324778 -0.488435 1.4123e-13)
(-0.0275458 -0.496013 -3.1033e-14)
(-0.026379 -0.493008 -4.15815e-15)
(-0.0279231 -0.491865 1.30365e-15)
(-0.0172803 -0.486668 -2.78951e-16)
(-0.010296 -0.486866 -1.62816e-14)
(0.00582055 -0.4871 1.9561e-17)
(0.00208014 -0.487086 4.19298e-15)
(-0.00127028 -0.486135 -5.23071e-15)
(0.00098657 -0.485556 3.20987e-15)
(0.00153229 -0.484332 3.35763e-17)
(0.000314648 -0.482651 -2.42835e-15)
(0.000689148 -0.481553 -1.38052e-15)
(0.000755605 -0.484541 5.13687e-15)
(0.00104653 -0.486103 2.84812e-16)
(-2.84851e-05 -0.486129 -5.10464e-15)
(6.24961e-05 -0.485993 1.60503e-15)
(-0.00105049 -0.485922 1.41983e-15)
(-0.000569788 -0.485469 -1.63726e-15)
(-0.000233424 -0.484798 -1.21682e-15)
(-0.000195815 -0.484012 5.1348e-15)
(-0.000128631 -0.482814 -1.17419e-15)
(-0.00010079 -0.481772 -6.2692e-15)
(-0.000148156 -0.482523 4.19813e-16)
(-0.000103183 -0.483875 3.38807e-15)
(-5.90731e-05 -0.484407 2.96439e-15)
(-8.2773e-05 -0.484643 -1.0463e-15)
(-4.6325e-05 -0.484832 -8.22241e-16)
(-3.84617e-05 -0.484546 -3.50048e-15)
(-8.14507e-05 -0.483964 1.86142e-16)
(-9.88153e-05 -0.483516 1.9902e-15)
(-6.66708e-05 -0.482231 -1.5905e-15)
(-9.60606e-05 -0.480746 2.09847e-15)
(-8.02411e-05 -0.482425 1.40136e-15)
(-5.80831e-05 -0.48488 -9.8161e-16)
(-0.000106367 -0.485747 -3.2653e-15)
(-7.96442e-05 -0.485928 1.26483e-15)
(-8.42234e-05 -0.485914 9.89014e-16)
(-5.34876e-05 -0.485718 -7.67499e-16)
(-1.6875e-05 -0.485302 2.11542e-15)
(-4.70329e-05 -0.484858 -4.22121e-16)
(-4.97596e-05 -0.484337 3.29078e-16)
(-7.81521e-05 -0.483553 -1.63075e-15)
(-5.24575e-05 -0.482851 -1.23299e-15)
(-1.70751e-05 -0.482242 6.42552e-16)
(-7.24386e-05 -0.481383 1.19637e-15)
(-8.46973e-05 -0.480115 9.89973e-16)
(2.02602e-06 -0.478818 -1.21652e-15)
(-2.58218e-06 -0.477869 -2.35608e-16)
(-3.25515e-05 -0.477394 9.88572e-16)
(-4.41441e-05 -0.477073 9.35393e-16)
(-8.91055e-05 -0.476088 -2.11416e-15)
(-3.40441e-05 -0.474693 -7.07829e-16)
(-4.14267e-05 -0.473301 1.01827e-17)
(-2.25439e-06 -0.471762 6.33362e-16)
(-4.99871e-05 -0.469741 1.65195e-15)
(-4.02115e-05 -0.467091 -1.53596e-15)
(3.27359e-05 -0.463937 5.48533e-16)
(3.60127e-05 -0.460353 -7.82535e-16)
(4.36179e-05 -0.456315 -7.53265e-16)
(-5.34676e-05 -0.452207 1.35312e-15)
(-5.87653e-05 -0.448935 5.94003e-16)
(2.29197e-05 -0.449891 -2.64778e-17)
(-2.20568e-05 -0.447427 -1.0038e-15)
(-4.76873e-05 -0.446993 -8.18155e-16)
(-1.24922e-05 -0.446982 -2.3231e-15)
(-4.13339e-05 -0.445643 -1.8407e-15)
(3.2401e-05 -0.443436 -1.28034e-15)
(-0.047845 -0.629613 -2.03233e-14)
(0.0628072 -0.494799 4.21358e-14)
(0.00150853 -0.509613 -3.54423e-14)
(-0.0463221 -0.499476 1.49686e-14)
(-0.0239712 -0.493768 1.4281e-14)
(-0.0237129 -0.495324 8.46629e-16)
(-0.0246685 -0.4911 3.66817e-15)
(-0.019259 -0.487121 -7.11267e-15)
(-0.00886889 -0.489479 2.86942e-15)
(-0.0187625 -0.487419 1.32823e-15)
(-0.00141862 -0.487209 -5.56931e-16)
(0.00184432 -0.488452 -2.74961e-16)
(0.00284176 -0.48647 8.09848e-16)
(0.00221681 -0.48632 3.16045e-16)
(0.000231431 -0.488978 -1.49537e-15)
(0.000167668 -0.489083 -6.21489e-16)
(-0.000366166 -0.488943 1.63372e-16)
(-0.000683282 -0.488776 -5.99137e-18)
(-0.000624359 -0.488644 2.94989e-16)
(-0.000241724 -0.488139 6.4623e-16)
(-0.00038094 -0.487908 -3.08012e-16)
(-0.000357602 -0.487876 -8.63227e-16)
(0.000350481 -0.48796 5.66539e-16)
(-0.000296839 -0.488309 4.82272e-16)
(-8.57977e-05 -0.488335 -2.56595e-16)
(-0.000104878 -0.48778 -2.2351e-16)
(-0.000112955 -0.486925 3.95479e-16)
(-9.72513e-05 -0.487245 3.12585e-16)
(-7.4388e-05 -0.487883 -6.31426e-16)
(-7.86242e-05 -0.486895 1.46776e-16)
(-6.56452e-05 -0.485916 3.47224e-18)
(-8.28632e-05 -0.487811 -2.08913e-16)
(-7.64314e-05 -0.488741 7.86363e-17)
(-7.44133e-05 -0.488706 -3.39352e-17)
(-8.99998e-05 -0.488603 9.962e-17)
(-6.24881e-05 -0.488545 -3.38617e-16)
(-4.98906e-05 -0.48852 1.57959e-16)
(-6.66279e-05 -0.488453 -1.21176e-16)
(-5.90266e-05 -0.488364 -3.18829e-16)
(-6.28202e-05 -0.48829 3.77764e-16)
(-5.69776e-05 -0.488282 -4.2362e-17)
(-5.53206e-05 -0.488244 -3.39382e-16)
(-3.47906e-05 -0.488073 -1.49417e-16)
(-3.55787e-05 -0.487967 -2.48011e-16)
(-4.44133e-05 -0.487757 -5.29451e-16)
(-3.05637e-05 -0.48756 -1.49272e-16)
(-7.12437e-05 -0.487422 3.62903e-16)
(-3.18828e-05 -0.487378 -1.063e-16)
(-3.98338e-05 -0.487454 -6.42887e-16)
(-5.85805e-05 -0.487482 3.96862e-16)
(-3.18837e-05 -0.48735 3.30388e-16)
(-6.46003e-06 -0.486937 -8.53898e-16)
(-3.13022e-05 -0.48661 4.16317e-17)
(-3.06089e-05 -0.486581 3.98305e-16)
(-7.14929e-05 -0.48623 -5.25274e-16)
(-6.42457e-05 -0.486161 -1.19383e-16)
(-2.1493e-05 -0.485971 7.72419e-16)
(-1.26553e-05 -0.485394 -3.97802e-17)
(1.14085e-05 -0.48538 -6.79371e-16)
(-8.94242e-06 -0.485159 1.33071e-16)
(-1.49081e-06 -0.484924 1.80488e-16)
(-5.14691e-05 -0.485103 -2.2399e-16)
(6.49176e-07 -0.483748 -5.80389e-18)
(9.07636e-06 -0.484028 2.3415e-16)
(-5.39569e-05 -0.485443 1.46544e-16)
(-1.94624e-05 -0.482069 -1.07106e-16)
(7.39934e-06 -0.485874 -4.5157e-16)
(-6.56254e-05 -0.482012 -3.36088e-16)
(4.76038e-05 -0.48413 -4.80292e-17)
(-1.11981e-05 -0.48894 -8.84237e-16)
(-1.68146e-05 -0.488779 6.46162e-18)
(-0.0356587 -0.556539 -1.14293e-11)
(0.0564592 -0.550062 -3.24493e-12)
(0.000340309 -0.497155 4.2636e-14)
(-0.0390096 -0.487958 -1.1986e-13)
(-0.0237919 -0.499433 6.00311e-15)
(-0.0212028 -0.487888 -3.53848e-15)
(-0.0210048 -0.496355 -4.55916e-15)
(-0.01241 -0.486274 2.4916e-16)
(-0.00546642 -0.492528 -4.57592e-15)
(-0.0125512 -0.48922 -1.47745e-15)
(0.000213298 -0.488599 1.46345e-16)
(0.000947051 -0.488649 -7.57876e-16)
(0.00231293 -0.488582 -7.91234e-16)
(0.00164419 -0.488166 -7.73981e-16)
(0.000580685 -0.489082 -8.48163e-16)
(0.000530421 -0.489383 -1.48513e-15)
(0.000113082 -0.489393 -1.04271e-15)
(5.42312e-05 -0.489461 1.0418e-16)
(-0.000310607 -0.489416 -2.20247e-16)
(-0.000527122 -0.489033 -8.04348e-16)
(-0.0001853 -0.488894 -1.03066e-15)
(-0.000123616 -0.488908 -1.04788e-15)
(-0.000636487 -0.48877 -1.23623e-15)
(-0.000203933 -0.488449 -1.04453e-15)
(-0.000184089 -0.48804 -1.81726e-17)
(-9.35522e-05 -0.487881 -1.09988e-16)
(-0.00010649 -0.487654 -8.42164e-16)
(-8.79872e-05 -0.486651 -1.40846e-15)
(-6.96095e-05 -0.486289 -1.1804e-15)
(-7.70527e-05 -0.487906 -1.02865e-15)
(-6.08376e-05 -0.48888 -9.20568e-16)
(-6.98627e-05 -0.489004 -3.9341e-16)
(-6.87094e-05 -0.488934 -6.01545e-16)
(-6.3931e-05 -0.488859 -5.88921e-16)
(-7.32886e-05 -0.488798 -1.18484e-15)
(-5.88151e-05 -0.488755 -1.40606e-15)
(-4.27212e-05 -0.488759 -1.1306e-15)
(-6.02264e-05 -0.488753 -8.50825e-16)
(-4.63762e-05 -0.488679 -6.39869e-16)
(-4.31802e-05 -0.488566 -6.40936e-16)
(-5.23373e-05 -0.488485 -1.23998e-16)
(-4.37138e-05 -0.488398 -1.05548e-15)
(-3.31443e-05 -0.488278 -1.17337e-15)
(-3.63153e-05 -0.488132 -3.35189e-16)
(-3.66997e-05 -0.487924 -2.55413e-16)
(-3.17203e-05 -0.487715 -4.26172e-16)
(-6.79783e-05 -0.487583 -6.56595e-16)
(-2.64826e-05 -0.487403 -9.12443e-17)
(-3.36272e-05 -0.487082 -3.50338e-16)
(-5.94004e-05 -0.486825 -1.04513e-15)
(-2.95234e-05 -0.486626 -1.1041e-15)
(1.29265e-06 -0.486307 -6.65221e-16)
(-3.24443e-05 -0.486094 -7.17539e-16)
(-1.14155e-05 -0.486015 -6.22895e-16)
(-3.18381e-05 -0.485743 -1.04098e-16)
(-5.05197e-05 -0.485463 -4.7608e-16)
(1.4198e-05 -0.486429 -6.53392e-16)
(-1.98196e-05 -0.485074 -7.36105e-16)
(3.78849e-05 -0.485041 -8.57239e-16)
(-2.48333e-05 -0.487524 -8.68559e-16)
(-5.00363e-05 -0.482612 -5.46032e-16)
(3.94701e-05 -0.487697 -1.84997e-16)
(4.28024e-06 -0.489472 -5.4948e-16)
(-2.21387e-05 -0.489476 -4.64057e-16)
(-9.16598e-06 -0.489445 -8.21608e-16)
(-5.1047e-06 -0.489354 -8.07434e-16)
(-8.04082e-06 -0.489297 -1.24746e-15)
(8.53429e-06 -0.489245 -6.98743e-16)
(-3.74864e-06 -0.489232 -8.78024e-17)
(-1.22678e-05 -0.489081 -7.51889e-17)
(-1.56427e-05 -0.488964 -4.84156e-17)
(-5.66532e-05 -0.488578 -4.0693e-15)
(-4.87121e-05 -0.488478 -3.00685e-15)
(-4.28108e-05 -0.488333 -3.06614e-15)
(-4.42434e-05 -0.488188 -2.10263e-15)
(-4.58444e-05 -0.488 -1.48314e-15)
(-3.92261e-05 -0.487778 -6.92855e-16)
(-3.60604e-05 -0.487684 -1.32525e-15)
(-3.12986e-05 -0.487673 -3.49378e-15)
(-2.14595e-05 -0.487594 -2.22618e-15)
(-3.59265e-05 -0.487558 -2.26893e-15)
(-3.44992e-05 -0.487491 -2.26897e-15)
(-2.25115e-05 -0.487186 -1.85506e-15)
(-2.81118e-05 -0.486623 -6.38605e-16)
(-2.68438e-05 -0.486349 -7.55325e-16)
(-2.10844e-05 -0.486087 -2.52065e-15)
(-2.46547e-05 -0.486228 -2.1093e-15)
(-2.73086e-05 -0.487122 -2.67001e-15)
(-6.40132e-06 -0.487443 -2.14706e-15)
(-2.25901e-06 -0.483211 -2.04721e-15)
(-1.86993e-05 -0.486812 -9.77405e-16)
(-1.42321e-05 -0.489711 -2.68323e-16)
(-1.93993e-05 -0.489765 -1.70278e-15)
(-2.26085e-06 -0.489719 -1.43954e-15)
(-1.8928e-05 -0.489715 -2.09834e-15)
(2.04553e-05 -0.489685 -1.90407e-15)
(-5.4855e-06 -0.489685 -2.26696e-15)
(-2.38593e-06 -0.489679 -1.13692e-15)
(-1.43473e-05 -0.489667 -2.72149e-16)
(2.13662e-05 -0.489597 -1.27802e-15)
(-8.17416e-06 -0.489593 -1.35236e-15)
(-1.44968e-05 -0.489517 -2.28893e-15)
(-9.79174e-07 -0.489502 -2.04081e-15)
(-9.31929e-06 -0.48942 -2.37595e-15)
(2.79699e-06 -0.489382 -1.37063e-15)
(-6.19193e-06 -0.489343 -1.9849e-16)
(-8.78084e-06 -0.489186 -5.27134e-16)
(-1.35075e-05 -0.489092 -1.72626e-16)
(-4.94205e-05 -0.488616 -1.39895e-15)
(-4.13691e-05 -0.488485 -1.29272e-15)
(-4.36669e-05 -0.488288 -1.01122e-15)
(-4.51801e-05 -0.488123 -1.01359e-15)
(-4.25486e-05 -0.487947 -5.86109e-16)
(-3.84903e-05 -0.48804 -1.31264e-16)
(-3.20951e-05 -0.488132 -4.61421e-16)
(-2.69305e-05 -0.48799 -1.21088e-15)
(-2.21191e-05 -0.488207 -9.89043e-16)
(-2.02287e-05 -0.487666 -6.28576e-16)
(-3.03435e-05 -0.487767 -6.19875e-16)
(-2.067e-05 -0.487313 -5.27005e-16)
(-2.32997e-05 -0.486437 -2.36112e-16)
(-2.09491e-05 -0.489185 -3.11534e-16)
(-1.66586e-05 -0.489807 -6.67089e-16)
(-1.60881e-05 -0.489804 -8.92794e-16)
(-1.0187e-05 -0.489799 -9.52494e-16)
(-6.91465e-06 -0.489797 -9.57544e-16)