/*--------------------------------*- C++ -*----------------------------------*\
  =========                 |
  \\      /  F ield         | OpenFOAM: The Open Source CFD Toolbox
   \\    /   O peration     | Website:  https://openfoam.org
    \\  /    A nd           | Version:  8
     \\/     M anipulation  |
\*---------------------------------------------------------------------------*/
FoamFile
{
    version     2.0;
    format      ascii;
    class       polyBoundaryMesh;
    location    "constant/polyMesh";
    object      boundary;
}
// * * * * * * * * * * * * * * * * * * * * * * * * * * * * * * * * * * * * * //

2
(
    walls
    {
        type            wall;
        inGroups        List<word> 1(wall);
        nFaces          136;
        startFace       1852;
    }
    frontAndBack
    {
        type            wall;
        inGroups        List<word> 1(wall);
        nFaces          1920;
        startFace       1988;
    }
)

// ************************************************************************* //
